# ========================
# Tonto generated CIF file
# ========================

# Note: This is an incomplete CIF file, edit it
# in order for it to be acceptable

data_pyrazinamide

_audit_creation_date               2016-4-4
_audit_creation_method             'Tonto 3.6.1 github v. d2f3ee2'

# ======================
# Tonto software version
# ======================

_QCr_software                      'Tonto'
_QCr_software_version              '3.6.1 v. d2f3ee2'
_QCr_software_platform             'Linux-3.16.0-38-generic'
_QCr_software_build_date           '2016-04-04 12:03'
_QCr_software_website              'https://github.com/dylan-jayatilaka/tonto'

# ================
# Publication info
# ================

_publ_contact_author
;
    Dr. Tonto Magnifico
;
_publ_contact_author_email          'tonto.magnifico@gmail.com'
_publ_contact_author_phone          '+61 8 6488 3138'
_publ_requested_journal             'IUCrJ'
_publ_section_title
;
   'Hirshfeld atom-refinement (HAR) for pyrazinamide'
   'X-ray wavefunction refinement (XWR) for pyrazinamide'
   Tonto Magnifico, IUCrJ (XXXX)
;

loop_
    _publ_author_name
    'Tonto Magnifico'

_publ_author_address
;
    Prof. Dr. Sir Tonto Magnifico
    1 El Camino Ciberespacio
    Tierra Austral del Espiritu Santo
;

# ====================
# Chemical information
# ====================

_chemical_name_common               pyrazinamide
_chemical_formula_sum               'C5 H5 N3 O'
_chemical_formula_moiety            'C5 H5 N3 O'
_chemical_formula_weight            123.1151
_chemical_compound_source           'see text'
_chemical_absolute_configuration    unk

# ====================
# Symmetry information
# ====================

_symmetry_cell_setting             Monoclinic
_symmetry_space_group_name_H-M     'p 1 21/n 1'
_symmetry_space_group_name_Hall    '-p 2yn'
_symmetry_Int_Tables_number        '14'

loop_
    _symmetry_equiv_pos_as_xyz
'+x, +y, +z'
'-x, -y, -z'
'-x+1/2, +y+1/2, -z+1/2'
'+x+1/2, -y+1/2, +z+1/2'

# =====================
# Unit cell information
# =====================

_cell_length_a                      3.5885(9)
_cell_length_b                      6.761(2)
_cell_length_c                      22.434(6)
_cell_angle_alpha                   90.000000(0)
_cell_angle_beta                    92.748(8)
_cell_angle_gamma                   90.000000(0)
_cell_volume                        543.6(2)

_cell_formula_units_Z               4.00000

_atom_sites_Cartn_tran_matrix_11    3.588500
_atom_sites_Cartn_tran_matrix_21    0.000000
_atom_sites_Cartn_tran_matrix_31    0.000000
_atom_sites_Cartn_tran_matrix_12    0.000000
_atom_sites_Cartn_tran_matrix_22    6.760500
_atom_sites_Cartn_tran_matrix_32    0.000000
_atom_sites_Cartn_tran_matrix_13    -1.075559
_atom_sites_Cartn_tran_matrix_23    0.000000
_atom_sites_Cartn_tran_matrix_33    22.408202
_atom_sites_Cartn_tran_vector_1     0.000000
_atom_sites_Cartn_tran_vector_2     0.000000
_atom_sites_Cartn_tran_vector_3     0.000000

# ===============================
# Crystal axis system coordinates
# ===============================

loop_
_atom_site_label
_atom_site_fract_x
_atom_site_fract_y
_atom_site_fract_z
_atom_site_adp_type
_atom_site_occupancy
_atom_site_disorder_group
O1
        0.953960
        0.532880
        0.916020
Uani
1.000000
0
N1
        0.765900
        0.729030
        0.991310
Uani
1.000000
0
H1
        0.656000
        0.836900
        1.000700
Uani
1.000000
0
H3
        0.844000
        0.641500
        1.017200
Uani
1.000000
0
N2
        0.566100
        0.933970
        0.787360
Uani
1.000000
0
N3
        0.537200
        1.011280
        0.910210
Uani
1.000000
0
C1
        0.805000
        0.686290
        0.933980
Uani
1.000000
0
C2
        0.664500
        0.838840
        0.889570
Uani
1.000000
0
C3
        0.675900
        0.799500
        0.828560
Uani
1.000000
0
H4
        0.761700
        0.677100
        0.816200
Uani
1.000000
0
C4
        0.446300
        1.106830
        0.808180
Uani
1.000000
0
H2
        0.371000
        1.204700
        0.781100
Uani
1.000000
0
C5
        0.430100
        1.145780
        0.869120
Uani
1.000000
0
H5
        0.342800
        1.268000
        0.881400
Uani
1.000000
0

# ========================
# Crystal axis system ADPs
# ========================

loop_
_atom_site_aniso_label
_atom_site_aniso_U_11
_atom_site_aniso_U_22
_atom_site_aniso_U_33
_atom_site_aniso_U_12
_atom_site_aniso_U_13
_atom_site_aniso_U_23
O1
        0.011100
        0.006000
        0.007600
        0.003400
        0.001100
       -0.000200
N1
        0.012800
        0.007400
        0.005000
        0.004400
        0.000600
        0.000400
H1
        0.013000
        0.013000
        0.013000
        0.000000
        0.000623
        0.000000
H3
        0.013000
        0.013000
        0.013000
        0.000000
        0.000623
        0.000000
N2
        0.008600
        0.007100
        0.006900
        0.000400
        0.000500
        0.000700
N3
        0.007100
        0.005300
        0.006800
        0.000300
        0.000900
        0.000300
C1
        0.006100
        0.005700
        0.005900
       -0.000100
        0.000500
        0.000400
C2
        0.005800
        0.005300
        0.005400
       -0.000200
        0.000500
        0.000200
C3
        0.007900
        0.006100
        0.006100
        0.000300
        0.000800
       -0.000500
H4
        0.008000
        0.008000
        0.008000
        0.000000
        0.000384
        0.000000
C4
        0.008000
        0.007200
        0.006400
        0.000800
        0.000400
        0.001400
H2
        0.009000
        0.009000
        0.009000
        0.000000
        0.000431
        0.000000
C5
        0.007700
        0.005900
        0.007500
        0.001000
        0.001200
        0.000400
H5
        0.008000
        0.008000
        0.008000
        0.000000
        0.000384
        0.000000

# Standard CIF keys and data

# ===============
# Reflection data
# ===============

_diffrn_radiation_wavelength        0.710730

_reflns_d_resolution_high           7.469401
_reflns_d_resolution_low            0.601494
_reflns_limit_h_max                 4
_reflns_limit_h_min                 -5
_reflns_limit_k_max                 10
_reflns_limit_k_min                 -10
_reflns_limit_l_max                 36
_reflns_limit_l_min                 -35
_reflns_number_gt                   9213
_reflns_number_total                9213
_reflns_threshold_expression        'F>0'

_reflns_special_details
;
* Specify symmetry and Friedel pair averaging *

. Only reflections which satisfy the threshold expression
  are listed below, and only they are considered observed,
  thus the *_gt, *_all, & *_total data are always the same
;

loop_
    _refln_index_h
    _refln_index_k
    _refln_index_l
    _refln_F_calc
    _refln_F_meas
    _refln_F_sigma
       1       0       0        0.000000        0.000000        0.300000
       1       0       0        0.000000        0.000000        0.200000
      -1       0       0        0.000000        0.300000        0.300000
      -1       0       0        0.000000        0.244949        0.103528
       1       0       0        0.000000        0.346410        0.081835
      -1       0       0        0.000000        0.100000        0.100000
      -2       0       0        0.000000        4.593474        0.103485
       2       0       0        0.000000        4.700000        0.093483
      -2       0       0        0.000000        4.615192        0.100771
      -3       0       0        0.000000        0.374166        0.374166
      -3       0       0        0.000000        0.574456        0.138566
      -4       0       0        0.000000        2.340940        0.212560
      -4       0       0        0.000000        2.151743        0.107239
      -4       0       0        0.000000        2.042058        0.113328
      -5       0       0        0.000000        0.812404        0.264681
      -5       0       0        0.000000        0.100000        0.508276
      -5       0       0        0.000000        0.974679        0.974679
       0      -1       0        0.000000        0.000000        0.141421
       0       1       0        0.000000        0.173205        0.073205
      -1      -1       0        0.000000       29.458954        0.638129
       1      -1       0        0.000000       31.032886        0.606746
       1      -1       0        0.000000       30.925232        0.608570
      -1      -1       0        0.000000       30.461123        0.619373
       1      -1       0        0.000000       31.330177        0.601038
      -1      -1       0        0.000000       30.895631        0.611642
       1      -1       0        0.000000       29.986664        0.631596
      -1      -1       0        0.000000       31.622777        0.596014
      -1       1       0        0.000000       31.177235        0.604208
      -1       1       0        0.000000       31.326187        0.610230
      -1       1       0        0.000000       31.322516        0.600700
       1       1       0        0.000000       31.342942        0.601276
       1       1       0        0.000000       30.912295        0.609490
       1       1       0        0.000000       31.170499        0.604178
      -1       1       0        0.000000       30.920058        0.609829
      -2      -1       0        0.000000        6.682066        0.142188
       2      -1       0        0.000000        6.913754        0.133636
      -2      -1       0        0.000000        6.721607        0.142853
      -2       1       0        0.000000        6.673080        0.141618
      -2       1       0        0.000000        6.887670        0.137855
       2       1       0        0.000000        6.763875        0.137413
       2       1       0        0.000000        7.179833        0.131429
      -2       1       0        0.000000        6.340347        0.167827
      -3      -1       0        0.000000        3.059412        0.091247
       3      -1       0        0.000000        3.036445        0.069966
      -3      -1       0        0.000000        3.041381        0.085032
      -3       1       0        0.000000        2.920616        0.152946
      -3       1       0        0.000000        3.109662        0.088073
      -3       1       0        0.000000        3.072458        0.082475
       3       1       0        0.000000        2.983287        0.078119
      -4      -1       0        0.000000        2.420744        0.189152
      -4      -1       0        0.000000        2.012461        0.104583
      -4      -1       0        0.000000        2.063977        0.117185
      -4       1       0        0.000000        2.000000        0.105270
      -4       1       0        0.000000        2.161018        0.094620
      -5      -1       0        0.000000        0.714143        0.449568
      -5      -1       0        0.000000        0.300000        0.448331
      -5       1       0        0.000000        0.300000        0.392820
      -5       1       0        0.000000        0.953939        0.953939
       0      -2       0        0.000000        0.678233        0.178233
       0      -2       0        0.000000        0.707107        0.036286
       0      -2       0        0.000000        0.616441        0.050756
       0       2       0        0.000000        0.714143        0.050818
      -1      -2       0        0.000000        4.989990        0.103273
      -1      -2       0        0.000000        4.969909        0.105755
      -1      -2       0        0.000000        4.953786        0.105075
       1      -2       0        0.000000        5.069517        0.099607
       1      -2       0        0.000000        5.040833        0.102210
       1      -2       0        0.000000        4.876474        0.105730
       1       2       0        0.000000        4.967897        0.126410
       1       2       0        0.000000        5.059644        0.102831
       1       2       0        0.000000        4.829079        0.107850
      -1       2       0        0.000000        5.036864        0.102292
      -1       2       0        0.000000        4.947727        0.115543
       2      -2       0        0.000000       16.903550        0.314397
      -2      -2       0        0.000000       16.290488        0.327406
      -2       2       0        0.000000       16.507271        0.322093
      -2       2       0        0.000000       16.345948        0.325024
       2       2       0        0.000000       16.735292        0.317923
       2       2       0        0.000000       15.710188        0.345944
      -3      -2       0        0.000000        5.701754        0.125913
       3      -2       0        0.000000        5.807753        0.116532
      -3      -2       0        0.000000        5.759340        0.129065
       3       2       0        0.000000        5.519964        0.153401
      -3       2       0        0.000000        5.756735        0.122909
      -3       2       0        0.000000        5.600000        0.125514
      -4      -2       0        0.000000        1.063015        0.146499
      -4      -2       0        0.000000        0.984886        0.166351
      -4       2       0        0.000000        0.948683        0.148683
      -4       2       0        0.000000        0.938083        0.638083
      -5      -2       0        0.000000        0.360555        0.381065
      -5       2       0        0.000000        0.830662        0.830662
       0      -3       0        0.000000        0.300000        0.200000
       0      -3       0        0.000000        0.264575        0.123154
      -1      -3       0        0.000000        0.678233        0.086625
       1      -3       0        0.000000        0.842615        0.068018
       1      -3       0        0.000000        0.818535        0.043939
      -1      -3       0        0.000000        0.655744        0.081288
      -1      -3       0        0.000000        0.953939        0.205608
      -1       3       0        0.000000        0.836660        0.122517
      -2      -3       0        0.000000        2.867054        0.079582
      -2      -3       0        0.000000        2.664583        0.076147
      -2      -3       0        0.000000        2.745906        0.073828
       2      -3       0        0.000000        2.694439        0.073370
       2      -3       0        0.000000        2.679552        0.075709
      -2      -3       0        0.000000        2.647640        0.070821
      -2      -3       0        0.000000        2.700000        0.082750
      -2       3       0        0.000000        2.703701        0.117198
       2       3       0        0.000000        2.954657        0.149305
      -3      -3       0        0.000000        8.039900        0.172881
      -3      -3       0        0.000000        8.103703        0.168969
       3      -3       0        0.000000        8.218272        0.162219
       3       3       0        0.000000        7.942292        0.198908
      -4      -3       0        0.000000        2.029778        0.114054
      -4      -3       0        0.000000        1.979899        0.127873
      -5      -3       0        0.000000        1.772005        0.178267
      -5      -3       0        0.000000        1.630951        0.168077
      -5       3       0        0.000000        0.969536        0.969536
       0      -4       0        0.000000        3.712142        0.078962
       0      -4       0        0.000000        3.572114        0.090735
       1      -4       0        0.000000        0.200000        0.200000
      -1      -4       0        0.000000        0.173205        0.187350
       1      -4       0        0.000000        0.400000        0.083772
      -2      -4       0        0.000000        0.754983        0.319094
      -2      -4       0        0.000000        0.655744        0.117227
       2      -4       0        0.000000        0.754983        0.114671
      -2      -4       0        0.000000        0.768115        0.120041
      -2      -4       0        0.000000        0.648074        0.118924
       2      -4       0        0.000000        0.591608        0.179297
      -2      -4       0        0.000000        0.948683        0.100155
      -2       4       0        0.000000        0.412311        0.412311
       3      -4       0        0.000000        1.816590        0.084539
      -3      -4       0        0.000000        1.577973        0.111686
      -3      -4       0        0.000000        1.760682        0.099357
      -4      -4       0        0.000000        2.696294        0.127247
      -4      -4       0        0.000000        2.792848        0.126390
      -5      -4       0        0.000000        1.959592        0.179142
      -5      -4       0        0.000000        2.184033        0.171572
      -5       4       0        0.000000        0.714143        0.714143
      -1      -5       0        0.000000        2.981610        0.083335
      -1      -5       0        0.000000        2.989983        0.088260
       1      -5       0        0.000000        2.956349        0.087551
      -1       5       0        0.000000        3.061046        0.106388
       2      -5       0        0.000000        3.343651        0.094035
      -2      -5       0        0.000000        3.419064        0.100932
      -2      -5       0        0.000000        3.303029        0.098345
      -2      -5       0        0.000000        3.445287        0.088205
      -2      -5       0        0.000000        3.432200        0.093039
       2      -5       0        0.000000        3.283291        0.084854
      -2       5       0        0.000000        3.417601        0.131266
      -3      -5       0        0.000000        2.966479        0.109908
       3      -5       0        0.000000        2.989983        0.096888
      -3      -5       0        0.000000        3.193744        0.100202
      -4      -5       0        0.000000        0.538516        0.538516
      -4      -5       0        0.000000        1.109054        0.198010
      -4       5       0        0.000000        0.360555        0.664140
      -5      -5       0        0.000000        3.120897        0.164548
      -5      -5       0        0.000000        3.642801        0.152815
       0      -6       0        0.000000        4.229657        0.096862
       0      -6       0        0.000000        4.324350        0.107716
       1      -6       0        0.000000        3.138471        0.093803
       1      -6       0        0.000000        3.100000        0.071799
      -1      -6       0        0.000000        2.978255        0.093814
      -1      -6       0        0.000000        3.154362        0.096585
      -1       6       0        0.000000        3.162278        0.117610
      -2      -6       0        0.000000        0.282843        0.282843
       2      -6       0        0.000000        0.264575        0.264575
      -2      -6       0        0.000000        0.489898        0.489898
      -2      -6       0        0.000000        0.316228        0.316228
      -2       6       0        0.000000        0.244949        0.440616
      -3      -6       0        0.000000        1.183216        0.158521
      -3      -6       0        0.000000        1.655295        0.128861
       3      -6       0        0.000000        1.473092        0.124018
      -4      -6       0        0.000000        0.400000        0.400000
      -4      -6       0        0.000000        1.058301        0.233679
      -5      -6       0        0.000000        3.424909        0.169145
       0      -7       0        0.000000        0.264575        0.292201
       0      -7       0        0.000000        0.447214        0.274009
      -1      -7       0        0.000000        1.627882        0.117915
      -1      -7       0        0.000000        1.694107        0.100370
       1      -7       0        0.000000        1.558846        0.113162
      -1       7       0        0.000000        1.857418        0.160361
      -2      -7       0        0.000000        0.800000        0.175500
      -2      -7       0        0.000000        0.905539        0.212718
      -2      -7       0        0.000000        0.883176        0.190356
       2      -7       0        0.000000        0.787401        0.195793
      -2      -7       0        0.000000        0.927362        0.179030
      -2       7       0        0.000000        0.932738        0.422836
       3      -7       0        0.000000        1.833030        0.130092
      -3      -7       0        0.000000        1.780449        0.131207
      -3      -7       0        0.000000        1.949359        0.141045
      -4      -7       0        0.000000        3.402940        0.139506
       0      -8       0        0.000000        0.938083        0.216973
       0       8       0        0.000000        1.024695        0.256581
      -1      -8       0        0.000000        1.228821        0.161113
       1      -8       0        0.000000        0.974679        0.200083
      -1      -8       0        0.000000        1.228821        0.137949
      -1       8       0        0.000000        1.252996        0.263047
      -2      -8       0        0.000000        2.551470        0.134861
      -2      -8       0        0.000000        2.647640        0.125736
      -2      -8       0        0.000000        2.740438        0.159740
       2      -8       0        0.000000        2.569047        0.142114
      -2      -8       0        0.000000        2.767671        0.112487
      -2       8       0        0.000000        2.527845        0.212678
      -3      -8       0        0.000000        2.930870        0.129085
      -3      -8       0        0.000000        2.812472        0.151645
       3      -8       0        0.000000        2.651415        0.155418
      -4      -8       0        0.000000        1.039230        0.368410
      -4      -8       0        0.000000        1.337909        0.347959
      -4       8       0        0.000000        0.591608        1.042405
      -1       9       0        0.000000        0.741620        0.741620
       2      -9       0        0.000000        1.326650        0.204153
      -2      -9       0        0.000000        1.442221        0.197231
      -2      -9       0        0.000000        1.058301        0.365480
      -2      -9       0        0.000000        1.539480        0.153840
      -2       9       0        0.000000        1.526434        0.421898
       3      -9       0        0.000000        1.552417        0.256269
      -3      -9       0        0.000000        1.545962        0.196889
      -3      -9       0        0.000000        1.562050        0.258209
      -3       9       0        0.000000        0.900000        0.900000
       1     -10       0        0.000000        1.777639        0.193341
      -1     -10       0        0.000000        1.705872        0.281092
      -1     -10       0        0.000000        1.824829        0.181661
      -2     -10       0        0.000000        0.565685        0.565685
       2     -10       0        0.000000        0.877496        0.490198
      -2     -10       0        0.000000        0.984886        0.284886
      -2     -10       0        0.000000        0.435890        0.480625
      -5       0       1        0.000000        0.774597        0.316339
      -5       0       1        0.000000        0.000000        0.974679
      -5       0       1        0.000000        0.953939        0.219092
      -4       0       1        0.000000        0.787401        0.204306
      -4       0       1        0.000000        0.663325        0.663325
       3       0      -1        0.000000        0.412311        0.147735
       3       0      -1        0.000000        0.574456        0.074456
      -3       0       1        0.000000        0.360555        0.360555
      -3       0       1        0.000000        0.300000        0.300000
      -2       0       1        0.000000        0.200000        0.200000
      -2       0       1        0.000000        0.200000        0.200000
      -1       0       1        0.000000        3.949684        0.093520
       1       0      -1        0.000000        3.934463        0.080893
       1       0      -1        0.000000        3.947151        0.081921
      -1       0       1        0.000000        3.754997        0.084847
      -1       0       1        0.000000        3.858756        0.082515
      -1       0      -1        0.000000       18.015271        0.362226
       1       0       1        0.000000       18.086735        0.359920
       1       0       1        0.000000       18.183234        0.360215
      -1       0      -1        0.000000       18.726185        0.347937
       1       0       1        0.000000       18.444782        0.353072
      -1       0      -1        0.000000       17.753873        0.369685
      -2       0      -1        0.000000        0.100000        0.182843
      -2       0      -1        0.000000        0.387298        0.387298
       3       0       1        0.000000        0.670820        0.087725
       3       0       1        0.000000        0.655744        0.126594
      -3       0      -1        0.000000        0.761577        0.137078
      -3       0      -1        0.000000        0.748331        0.123832
      -4       0      -1        0.000000        0.223607        0.630794
      -5       0      -1        0.000000        2.495997        0.123235
      -5       0      -1        0.000000        2.762245        0.246296
      -5       0      -1        0.000000        2.330236        0.139346
      -5      -1       1        0.000000        1.396424        0.204786
      -5      -1       1        0.000000        1.643168        0.156561
      -5       1       1        0.000000        1.640122        0.146803
      -5       1       1        0.000000        1.392839        0.147849
      -5       1       1        0.000000        0.244949        0.774855
      -4      -1       1        0.000000        0.932738        0.151713
      -4      -1       1        0.000000        0.655744        0.324081
      -4      -1       1        0.000000        1.126943        0.320717
      -4       1       1        0.000000        0.100000        0.693725
      -4       1       1        0.000000        1.063015        0.146499
      -4       1       1        0.000000        0.556776        0.356776
      -3      -1       1        0.000000        4.276681        0.107748
      -3      -1       1        0.000000        4.275512        0.131842
      -3      -1       1        0.000000        4.283690        0.101585
       3      -1      -1        0.000000        4.239104        0.091815
       3       1      -1        0.000000        4.377214        0.100533
      -3       1       1        0.000000        4.348563        0.100034
       3       1      -1        0.000000        4.436215        0.091102
      -3       1       1        0.000000        4.273172        0.103040
      -2      -1       1        0.000000        2.177154        0.065283
      -2      -1       1        0.000000        2.121320        0.071930
       2      -1      -1        0.000000        2.167948        0.053711
      -2       1       1        0.000000        2.121320        0.064624
      -2       1       1        0.000000        2.137756        0.066524
       2       1      -1        0.000000        2.167948        0.058446
      -2       1       1        0.000000        2.267157        0.113091
       2       1      -1        0.000000        2.260531        0.065081
      -1      -1       1        0.000000       17.563029        0.359541
       1      -1      -1        0.000000       17.968305        0.350701
      -1      -1       1        0.000000       17.617037        0.359575
      -1      -1       1        0.000000       17.452507        0.362159
      -1      -1       1        0.000000       18.774717        0.337255
       1      -1      -1        0.000000       17.751338        0.355074
       1      -1      -1        0.000000       17.416659        0.364386
       1      -1      -1        0.000000       17.877080        0.353097
       1       1      -1        0.000000       18.030807        0.350592
      -1       1       1        0.000000       17.845448        0.354307
       1       1      -1        0.000000       18.113807        0.347547
      -1       1       1        0.000000       17.979711        0.352176
       1       1      -1        0.000000       18.665744        0.340898
      -1       1       1        0.000000       18.201099        0.348088
       1       1      -1        0.000000       17.334359        0.364091
       0      -1      -1        0.000000        5.123475        0.101524
       0      -1       1        0.000000        4.915282        0.117366
       0      -1       1        0.000000        5.150728        0.101966
       0      -1      -1        0.000000        5.171073        0.101557
       0       1      -1        0.000000        4.961854        0.116238
       0       1       1        0.000000        5.150728        0.100976
       0       1      -1        0.000000        5.155580        0.101868
       0       1       1        0.000000        5.249762        0.100005
      -1      -1      -1        0.000000       21.884698        0.457846
       1      -1       1        0.000000       22.240279        0.448996
      -1      -1      -1        0.000000       22.567454        0.445294
       1      -1       1        0.000000       22.946459        0.437128
       1      -1       1        0.000000       22.319274        0.448746
      -1      -1      -1        0.000000       22.613492        0.450910
       1      -1       1        0.000000       22.527095        0.447466
      -1       1      -1        0.000000       22.098190        0.451712
       1       1       1        0.000000       22.451058        0.444468
       1       1       1        0.000000       22.228585        0.451074
       1       1       1        0.000000       23.239836        0.431285
      -1       1      -1        0.000000       23.169376        0.439660
      -1       1      -1        0.000000       22.780255        0.440604
       1       1       1        0.000000       22.603540        0.441861
       1       1       1        0.000000       22.816441        0.441902
      -1       1      -1        0.000000       22.280260        0.450235
       2      -1       1        0.000000        6.782330        0.132518
      -2      -1      -1        0.000000        6.580274        0.139777
      -2      -1      -1        0.000000        6.545227        0.142103
      -2       1      -1        0.000000        6.606058        0.139219
       2       1       1        0.000000        6.811755        0.131934
       2       1       1        0.000000        6.720119        0.134529
      -2       1      -1        0.000000        6.605301        0.139236
      -3      -1      -1        0.000000        1.939072        0.089748
      -3      -1      -1        0.000000        1.603122        0.086547
       3      -1       1        0.000000        1.746425        0.064165
      -3      -1      -1        0.000000        1.982423        0.152122
       3       1       1        0.000000        1.643168        0.123299
      -3       1      -1        0.000000        1.783255        0.083255
       3       1       1        0.000000        1.714643        0.089835
      -3       1      -1        0.000000        1.621727        0.085498
      -3       1      -1        0.000000        1.452584        0.223763
      -4      -1      -1        0.000000        0.556776        0.256776
      -4      -1      -1        0.000000        0.781025        0.781025
      -4      -1      -1        0.000000        0.565685        0.320736
      -4       1      -1        0.000000        0.632456        0.245157
      -4       1      -1        0.000000        0.894427        0.146096
      -5      -1      -1        0.000000        0.519615        0.519615
      -5      -2       1        0.000000        1.624808        0.182587
      -5      -2       1        0.000000        1.593738        0.186613
      -5       2       1        0.000000        1.857418        0.374178
      -5       2       1        0.000000        1.816590        0.134330
      -4      -2       1        0.000000        1.664332        0.131361
      -4      -2       1        0.000000        1.652271        0.112791
      -4       2       1        0.000000        1.743560        0.100392
      -4       2       1        0.000000        1.315295        0.361355
      -3      -2       1        0.000000        4.205948        0.103510
      -3      -2       1        0.000000        3.973663        0.101971
       3      -2      -1        0.000000        4.192851        0.086758
      -3       2       1        0.000000        4.272002        0.094682
      -3       2       1        0.000000        4.101219        0.097471
      -3       2       1        0.000000        3.978693        0.157699
       3       2      -1        0.000000        3.848376        0.144324
       2      -2      -1        0.000000        3.954744        0.089514
      -2      -2       1        0.000000        4.063250        0.088329
       2      -2      -1        0.000000        4.093898        0.082664
       2       2      -1        0.000000        3.987480        0.087480
      -2       2       1        0.000000        3.902563        0.088117
       2       2      -1        0.000000        3.611094        0.126844
      -2       2       1        0.000000        3.994997        0.084754
       1      -2      -1        0.000000        1.034408        0.044459
      -1      -2       1        0.000000        1.072381        0.062430
       1      -2      -1        0.000000        1.144552        0.049107
      -1      -2       1        0.000000        1.131371        0.054338
       1      -2      -1        0.000000        1.100000        0.080196
       1      -2      -1        0.000000        1.153256        0.048720
       1       2      -1        0.000000        1.109054        0.060245
      -1       2       1        0.000000        1.053565        0.089200
      -1       2       1        0.000000        1.135782        0.054116
       1       2      -1        0.000000        0.979796        0.057841
       1       2      -1        0.000000        1.058301        0.130939
       0      -2       1        0.000000        2.431049        0.060395
       0      -2      -1        0.000000        2.479919        0.052987
       0      -2      -1        0.000000        2.471841        0.059374
       0      -2       1        0.000000        2.461707        0.101622
       0       2      -1        0.000000        2.455606        0.059776
       0       2       1        0.000000        2.389561        0.061471
      -1      -2      -1        0.000000        2.095233        0.102747
      -1      -2      -1        0.000000        2.280351        0.059991
      -1      -2      -1        0.000000        2.233831        0.065882
      -1      -2      -1        0.000000        2.253886        0.060714
       1      -2       1        0.000000        2.227106        0.059157
       1      -2       1        0.000000        2.271563        0.057969
      -1      -2      -1        0.000000        2.262742        0.055934
       1      -2       1        0.000000        2.267157        0.053562
       1       2       1        0.000000        2.308679        0.059235
      -1       2      -1        0.000000        2.271563        0.060229
       1       2       1        0.000000        2.177154        0.062917
       1       2       1        0.000000        2.181742        0.072240
      -1       2      -1        0.000000        2.200000        0.078680
      -2      -2      -1        0.000000       11.172735        0.220109
       2      -2       1        0.000000       11.193748        0.218321
      -2       2      -1        0.000000       10.971326        0.222838
       2       2       1        0.000000       10.789810        0.227140
       2       2       1        0.000000       11.078809        0.232150
      -2       2      -1        0.000000       11.008179        0.221613
      -2       2      -1        0.000000       11.382443        0.215527
       3      -2       1        0.000000        4.305810        0.096297
      -3      -2      -1        0.000000        4.385202        0.103847
      -3      -2      -1        0.000000        4.441846        0.125598
      -3      -2      -1        0.000000        4.246175        0.109751
       3       2       1        0.000000        4.358899        0.142265
      -3       2      -1        0.000000        4.296510        0.100083
      -3       2      -1        0.000000        4.236744        0.103948
      -4      -2      -1        0.000000        1.212436        0.126158
      -4      -2      -1        0.000000        0.927362        0.199351
      -4       2      -1        0.000000        1.039230        0.139230
      -4       2      -1        0.000000        1.170470        0.136062
      -4       2      -1        0.000000        0.632456        0.632456
      -5      -2      -1        0.000000        4.250882        0.127777
      -5      -2      -1        0.000000        4.178516        0.135003
      -5       2      -1        0.000000        3.971146        0.230825
      -5      -3       1        0.000000        0.830662        0.394772
      -5      -3       1        0.000000        1.004988        0.290845
      -4      -3       1        0.000000        3.959798        0.111422
      -4      -3       1        0.000000        3.925557        0.124242
       3      -3      -1        0.000000        3.818377        0.087425
      -3      -3       1        0.000000        3.797368        0.105485
      -3      -3       1        0.000000        3.758989        0.098388
       3       3      -1        0.000000        3.718871        0.176273
      -2      -3       1        0.000000        3.430743        0.081117
       2      -3      -1        0.000000        3.408812        0.081651
      -2      -3       1        0.000000        3.373426        0.085569
      -2      -3       1        0.000000        3.562303        0.086673
       2      -3      -1        0.000000        3.370460        0.082603
      -2      -3       1        0.000000        3.427827        0.091662
       2       3      -1        0.000000        3.517101        0.142194
      -1      -3       1        0.000000        6.447480        0.135587
       1      -3      -1        0.000000        6.466838        0.134382
      -1      -3       1        0.000000        6.573431        0.132934
       1      -3      -1        0.000000        6.549809        0.127971
      -1       3       1        0.000000        6.581793        0.141296
      -1       3       1        0.000000        6.335614        0.136420
       1       3      -1        0.000000        6.431951        0.162183
       0      -3       1        0.000000        1.946792        0.144017
       0      -3      -1        0.000000        1.982423        0.061485
       0      -3       1        0.000000        1.984943        0.051035
       0      -3      -1        0.000000        1.997498        0.050706
       0      -3       1        0.000000        1.910497        0.063879
      -1      -3      -1        0.000000        2.258318        0.065147
      -1      -3      -1        0.000000        2.204541        0.066785
       1      -3       1        0.000000        2.227106        0.066087
       1      -3       1        0.000000        2.249444        0.053995
      -1       3      -1        0.000000        2.197726        0.085855
      -2      -3      -1        0.000000        1.649242        0.068103
      -2      -3      -1        0.000000        1.562050        0.085568
       2      -3       1        0.000000        1.652271        0.067973
      -2      -3      -1        0.000000        1.740690        0.094482
      -2      -3      -1        0.000000        1.600000        0.060520
      -2       3      -1        0.000000        1.558846        0.148172
      -3      -3      -1        0.000000        5.046781        0.123368
       3      -3       1        0.000000        5.143928        0.110043
      -3      -3      -1        0.000000        5.110773        0.117778
      -4      -3      -1        0.000000        8.491761        0.183933
      -4      -3      -1        0.000000        8.462860        0.182160
      -5      -3      -1        0.000000        1.349074        0.204521
      -5      -3      -1        0.000000        1.161895        0.250852
      -5      -4       1        0.000000        2.541653        0.147911
      -5      -4       1        0.000000        3.047950        0.166978
      -4      -4       1        0.000000        3.963584        0.126919
      -4      -4       1        0.000000        3.993745        0.119471
      -3      -4       1        0.000000        2.459675        0.091131
      -3      -4       1        0.000000        2.325941        0.105580
      -2      -4       1        0.000000        1.816590        0.075901
       2      -4      -1        0.000000        1.857418        0.074162
      -2      -4       1        0.000000        2.188607        0.136778
      -2      -4       1        0.000000        1.846619        0.091626
      -2      -4       1        0.000000        1.897367        0.086290
       2      -4      -1        0.000000        1.915724        0.077247
      -2      -4       1        0.000000        1.920937        0.077028
      -2       4       1        0.000000        1.835756        0.141649
       2       4      -1        0.000000        1.500000        0.219375
       1      -4      -1        0.000000        4.596738        0.101185
       1      -4      -1        0.000000        4.503332        0.093117
      -1      -4       1        0.000000        4.518849        0.101837
      -1       4       1        0.000000        4.550824        0.114609
       0      -4       1        0.000000        1.144552        0.053681
       0      -4       1        0.000000        1.090871        0.075982
       0      -4      -1        0.000000        1.009950        0.082589
       0      -4      -1        0.000000        1.208305        0.055048
      -1      -4      -1        0.000000        0.854400        0.086286
       1      -4       1        0.000000        0.806226        0.092083
      -1       4      -1        0.000000        0.969536        0.121008
      -2      -4      -1        0.000000        3.495712        0.091303
      -2      -4      -1        0.000000        3.635932        0.093334
      -2      -4      -1        0.000000        3.573514        0.120978
      -2      -4      -1        0.000000        3.438023        0.097364
      -2      -4      -1        0.000000        3.698648        0.090325
       2      -4       1        0.000000        3.720215        0.088411
      -2       4      -1        0.000000        3.613862        0.123877
      -3      -4      -1        0.000000        4.395452        0.111762
      -3      -4      -1        0.000000        4.219005        0.109260
       3      -4       1        0.000000        4.277850        0.102925
      -4      -4      -1        0.000000        3.500000        0.122131
      -4      -4      -1        0.000000        3.475629        0.121527
      -5      -4      -1        0.000000        3.028201        0.168131
      -5      -4      -1        0.000000        3.024897        0.177091
      -5      -5       1        0.000000        0.648074        0.648074
      -5      -5       1        0.000000        0.574456        0.574456
      -3      -5       1        0.000000        0.264575        0.273941
      -2      -5       1        0.000000        1.827567        0.098405
      -2      -5       1        0.000000        1.824829        0.084139
      -2      -5       1        0.000000        1.900000        0.108353
       2      -5      -1        0.000000        1.989975        0.069038
      -2      -5       1        0.000000        1.878829        0.092772
       2      -5      -1        0.000000        1.711724        0.089997
      -2       5       1        0.000000        1.926136        0.148497
       1      -5      -1        0.000000        1.280625        0.047742
       1      -5      -1        0.000000        1.178983        0.092705
      -1      -5       1        0.000000        1.264911        0.085928
       1      -5      -1        0.000000        1.195826        0.051274
      -1       5       1        0.000000        1.345362        0.162146
       0      -5      -1        0.000000        2.801785        0.070485
       0      -5       1        0.000000        2.798214        0.087125
       0      -5      -1        0.000000        2.805352        0.085058
       0      -5       1        0.000000        2.860070        0.070805
      -1      -5      -1        0.000000        1.688194        0.088194
      -1      -5      -1        0.000000        1.685230        0.078992
       1      -5       1        0.000000        1.615549        0.085844
      -1       5      -1        0.000000        1.664332        0.108697
      -2      -5      -1        0.000000        5.408327        0.124389
       2      -5       1        0.000000        5.298113        0.116414
      -2      -5      -1        0.000000        5.287722        0.128264
      -2      -5      -1        0.000000        5.472659        0.118222
       2      -5       1        0.000000        5.385165        0.121136
      -2      -5      -1        0.000000        5.534438        0.120567
      -2       5      -1        0.000000        5.277310        0.148957
      -3      -5      -1        0.000000        2.142429        0.100371
       3      -5       1        0.000000        2.014944        0.099220
      -3      -5      -1        0.000000        2.037155        0.116218
      -4      -5      -1        0.000000        1.161895        0.187216
      -4      -5      -1        0.000000        1.496663        0.170013
      -5      -5      -1        0.000000        2.609598        0.168287
      -5      -5      -1        0.000000        2.441311        0.180780
      -5      -6       1        0.000000        1.526434        0.265482
      -4      -6       1        0.000000        2.273763        0.152443
      -4      -6       1        0.000000        2.381176        0.147345
      -3       6       1        0.000000        0.854400        0.854400
      -2      -6       1        0.000000        2.032240        0.095748
      -2      -6       1        0.000000        2.014944        0.114944
       2      -6      -1        0.000000        1.791647        0.106417
      -2      -6       1        0.000000        1.878829        0.129544
      -2      -6       1        0.000000        1.928730        0.109390
      -2       6       1        0.000000        1.865476        0.177282
      -1      -6       1        0.000000        0.173205        0.285052
      -1      -6       1        0.000000        0.141421        0.294469
       1      -6      -1        0.000000        0.360555        0.136948
       1      -6      -1        0.000000        0.264575        0.264575
      -1       6       1        0.000000        0.574456        0.474456
       0      -6       1        0.000000        2.727636        0.076222
       0      -6      -1        0.000000        2.711088        0.093838
       0      -6       1        0.000000        2.808914        0.092299
       0      -6      -1        0.000000        2.733130        0.076064
       1      -6       1        0.000000        3.489986        0.100295
      -1      -6      -1        0.000000        3.634556        0.100437
       1      -6       1        0.000000        3.586084        0.078949
      -1      -6      -1        0.000000        3.492850        0.094321
      -1       6      -1        0.000000        3.455431        0.117767
      -2      -6      -1        0.000000        0.670820        0.212563
       2      -6       1        0.000000        0.624500        0.212189
      -2      -6      -1        0.000000        0.529150        0.229150
      -2      -6      -1        0.000000        0.624500        0.250334
      -2      -6      -1        0.000000        0.100000        0.429150
      -2       6      -1        0.000000        0.538516        0.538516
       3      -6       1        0.000000        0.640312        0.293902
      -3      -6      -1        0.000000        0.781025        0.242508
      -3      -6      -1        0.000000        0.793725        0.219269
      -4      -6      -1        0.000000        0.200000        0.485565
      -4      -6      -1        0.000000        1.000000        0.292893
      -4      -7       1        0.000000        2.321637        0.160619
      -4      -7       1        0.000000        2.100000        0.186887
      -3      -7       1        0.000000        0.761577        0.325687
       3      -7      -1        0.000000        1.029563        0.204942
      -2      -7       1        0.000000        1.772005        0.125797
       2      -7      -1        0.000000        1.769181        0.126013
      -2      -7       1        0.000000        1.870829        0.118687
      -2      -7       1        0.000000        1.705872        0.105872
      -2      -7       1        0.000000        1.865476        0.142107
      -2       7       1        0.000000        1.926136        0.217335
       1      -7      -1        0.000000        2.675818        0.104826
      -1      -7       1        0.000000        2.537716        0.100504
      -1      -7       1        0.000000        2.527845        0.111236
      -1       7       1        0.000000        2.714774        0.134077
       0      -7      -1        0.000000        4.680812        0.117918
       0      -7      -1        0.000000        4.566180        0.105238
       0      -7       1        0.000000        4.583667        0.107061
       0      -7       1        0.000000        4.529901        0.120819
       0       7       1        0.000000        4.731807        0.123120
       1      -7       1        0.000000        0.984886        0.160265
      -1      -7      -1        0.000000        1.024695        0.152915
       1      -7       1        0.000000        1.157584        0.080551
      -1      -7      -1        0.000000        1.212436        0.112436
      -1       7      -1        0.000000        1.414214        0.177282
      -2      -7      -1        0.000000        2.338803        0.122951
      -2      -7      -1        0.000000        2.557342        0.111939
       2      -7       1        0.000000        2.334524        0.116416
      -2      -7      -1        0.000000        2.459675        0.138037
      -2      -7      -1        0.000000        2.410394        0.097387
      -2       7      -1        0.000000        2.308679        0.182650
       3      -7       1        0.000000        1.679286        0.139805
      -3      -7      -1        0.000000        1.822087        0.127979
      -3      -7      -1        0.000000        1.646208        0.159601
      -3       7      -1        0.000000        0.469042        0.640012
      -4      -7      -1        0.000000        0.877496        0.430283
      -4      -7      -1        0.000000        0.244949        0.510034
      -4      -8       1        0.000000        1.311488        0.326602
      -3      -8       1        0.000000        3.125700        0.144090
       3      -8      -1        0.000000        2.609598        0.160108
      -3      -8       1        0.000000        2.611513        0.137650
      -2      -8       1        0.000000        0.911043        0.225478
      -2      -8       1        0.000000        0.100000        0.429150
      -2      -8       1        0.000000        0.387298        0.387298
       2      -8      -1        0.000000        0.700000        0.339445
      -2      -8       1        0.000000        0.264575        0.391169
      -2       8       1        0.000000        0.244949        0.660590
      -1      -8       1        0.000000        4.647580        0.120992
      -1      -8       1        0.000000        4.686150        0.128738
       1      -8      -1        0.000000        4.796874        0.125686
      -1       8       1        0.000000        4.808326        0.151074
       0      -8       1        0.000000        1.646208        0.126339
       0      -8      -1        0.000000        1.558846        0.134065
       0       8      -1        0.000000        1.685230        0.168655
       0       8       1        0.000000        1.723369        0.164523
      -1      -8      -1        0.000000        0.883176        0.190356
      -1      -8      -1        0.000000        0.974679        0.193654
       1      -8       1        0.000000        1.118034        0.164095
      -1       8      -1        0.000000        1.256981        0.256981
      -2      -8      -1        0.000000        2.749545        0.103794
      -2      -8      -1        0.000000        2.559297        0.167645
      -2      -8      -1        0.000000        2.837252        0.120637
       2      -8       1        0.000000        2.414539        0.194179
      -2      -8      -1        0.000000        2.756810        0.128122
      -2       8      -1        0.000000        2.600000        0.216725
       3      -8       1        0.000000        0.721110        0.547905
      -3      -8      -1        0.000000        0.200000        0.507107
      -4      -8      -1        0.000000        1.717556        0.254683
      -3      -9       1        0.000000        0.774597        0.442934
      -3       9       1        0.000000        0.360555        0.927855
       2      -9      -1        0.000000        4.389761        0.141232
      -2      -9       1        0.000000        4.333590        0.159862
      -2      -9       1        0.000000        4.177320        0.123926
      -2      -9       1        0.000000        4.144876        0.138631
      -1      -9       1        0.000000        3.527038        0.131453
       1      -9      -1        0.000000        3.424909        0.135532
      -1       9       1        0.000000        3.479943        0.186009
       0      -9      -1        0.000000        0.655744        0.372901
      -1      -9      -1        0.000000        2.471841        0.150204
       1      -9       1        0.000000        2.543619        0.137378
      -1       9      -1        0.000000        2.707397        0.205398
       2      -9       1        0.000000        1.077033        0.264629
      -2      -9      -1        0.000000        1.109054        0.181692
      -2      -9      -1        0.000000        0.331662        0.492959
      -2      -9      -1        0.000000        0.707107        0.707107
      -3      -9      -1        0.000000        2.061553        0.190724
      -3      -9      -1        0.000000        1.824829        0.178621
       3      -9       1        0.000000        1.860108        0.204813
      -2     -10       1        0.000000        2.782086        0.140117
       2     -10      -1        0.000000        2.847806        0.164525
      -2     -10       1        0.000000        2.479919        0.210558
      -2     -10       1        0.000000        2.467793        0.167793
      -1     -10       1        0.000000        0.728011        0.628011
       1     -10      -1        0.000000        0.938083        0.372398
       0     -10      -1        0.000000        3.313608        0.173545
       0     -10       1        0.000000        3.689173        0.143754
      -1     -10      -1        0.000000        1.077033        0.468757
       1     -10       1        0.000000        1.166190        0.317662
      -1     -10      -1        0.000000        1.496663        0.216038
       2     -10       1        0.000000        1.822087        0.203445
      -2     -10      -1        0.000000        1.256981        0.379484
      -2     -10      -1        0.000000        1.612452        0.223207
      -2     -10      -1        0.000000        1.456022        0.187164
      -5       0       2        0.000000        0.787401        0.318359
      -5       0       2        0.000000        0.685565        0.685565
      -4       0       2        0.000000        6.303174        0.173737
      -4       0       2        0.000000        6.228162        0.136364
      -4       0       2        0.000000        6.096720        0.143570
       3       0      -2        0.000000        0.387298        0.087298
      -3       0       2        0.000000        0.360555        0.360555
       3       0      -2        0.000000        0.100000        0.182843
       3       0      -2        0.000000        0.100000        0.144949
      -3       0       2        0.000000        0.100000        0.508276
       2       0      -2        0.000000        5.523586        0.110638
       2       0      -2        0.000000        5.571355        0.117916
      -2       0       2        0.000000        5.597321        0.132890
      -2       0       2        0.000000        5.354437        0.118981
      -2       0       2        0.000000        5.419410        0.120353
       2       0      -2        0.000000        5.678908        0.107553
      -1       0       2        0.000000        0.000000        0.200000
      -1       0       2        0.000000        0.173205        0.173205
      -1       0      -2        0.000000        0.200000        0.100000
       1       0       2        0.000000        0.173205        0.173205
      -1       0      -2        0.000000        0.173205        0.173205
       1       0       2        0.000000        0.173205        0.173205
       1       0       2        0.000000        0.173205        0.173205
       2       0       2        0.000000        5.866856        0.119683
      -2       0      -2        0.000000        5.773214        0.125206
      -2       0      -2        0.000000        5.994164        0.140105
      -2       0      -2        0.000000        5.800000        0.124615
      -3       0      -2        0.000000        0.200000        0.212311
      -3       0      -2        0.000000        0.100000        0.300000
      -3       0      -2        0.000000        0.685565        0.544144
      -4       0      -2        0.000000        0.830662        0.190350
      -4       0      -2        0.000000        0.774597        0.166320
      -5       0      -2        0.000000        0.632456        0.632456
      -5      -1       2        0.000000        3.021589        0.126766
      -5      -1       2        0.000000        2.830194        0.152509
      -5       1       2        0.000000        3.138471        0.226427
      -5       1       2        0.000000        2.979933        0.112879
      -5       1       2        0.000000        2.952965        0.131617
      -4      -1       2        0.000000        0.911043        0.176196
      -4      -1       2        0.000000        0.400000        0.412404
      -3      -1       2        0.000000        1.371131        0.082721
      -3      -1       2        0.000000        1.500000        0.154638
      -3      -1       2        0.000000        1.356466        0.095514
       3      -1      -2        0.000000        1.264911        0.044256
       3       1      -2        0.000000        1.334166        0.093199
      -3       1       2        0.000000        1.244990        0.096077
       3       1      -2        0.000000        1.191638        0.073604
      -3       1       2        0.000000        0.728011        0.411783
      -3       1       2        0.000000        1.195826        0.077792
       2      -1      -2        0.000000       13.178391        0.248194
      -2      -1       2        0.000000       12.734206        0.260634
      -2      -1       2        0.000000       12.849124        0.256666
      -2       1       2        0.000000       12.727529        0.258768
       2       1      -2        0.000000       13.201515        0.250067
       2       1      -2        0.000000       12.790622        0.256269
      -2       1       2        0.000000       12.762837        0.258837
       1      -1      -2        0.000000        1.086278        0.042247
      -1      -1       2        0.000000        1.029563        0.049767
       1      -1      -2        0.000000        1.044031        0.044031
      -1      -1       2        0.000000        1.024695        0.039809
      -1      -1       2        0.000000        1.019804        0.040008
       1      -1      -2        0.000000        1.029563        0.034576
      -1      -1       2        0.000000        1.039230        0.054345
       1      -1      -2        0.000000        1.044031        0.084864
       1       1      -2        0.000000        1.118034        0.036369
       1       1      -2        0.000000        1.029563        0.054884
       1       1      -2        0.000000        1.004988        0.066904
      -1       1       2        0.000000        0.984886        0.101710
      -1       1       2        0.000000        1.081665        0.042435
      -1       1       2        0.000000        1.067708        0.033300
       0      -1      -2        0.000000        9.926732        0.194825
       0      -1      -2        0.000000       10.150862        0.190942
       0      -1       2        0.000000        9.923709        0.195400
       0       1       2        0.000000        9.962931        0.196663
       0       1      -2        0.000000        9.090655        0.218789
       0       1       2        0.000000       10.075713        0.192394
       0       1       2        0.000000       10.046890        0.191942
       0       1      -2        0.000000       10.072735        0.192452
      -1      -1      -2        0.000000        0.678233        0.053733
      -1      -1      -2        0.000000        0.692820        0.037076
      -1      -1      -2        0.000000        0.608276        0.060554
       1      -1       2        0.000000        0.648074        0.048074
       1      -1       2        0.000000        0.734847        0.056614
      -1      -1      -2        0.000000        0.793725        0.058878
       1      -1       2        0.000000        0.692820        0.060365
       1       1       2        0.000000        0.648074        0.064979
      -1       1      -2        0.000000        0.616441        0.059665
       1       1       2        0.000000        0.848528        0.054803
      -1       1      -2        0.000000        0.663325        0.046884
      -1       1      -2        0.000000        0.648074        0.109558
      -1       1      -2        0.000000        0.529150        0.060109
       1       1       2        0.000000        0.734847        0.056614
       1       1       2        0.000000        0.648074        0.056466
      -2      -1      -2        0.000000        0.979796        0.068753
      -2      -1      -2        0.000000        1.004988        0.077626
       2      -1       2        0.000000        0.943398        0.060222
       2       1       2        0.000000        0.916515        0.073900
       2       1       2        0.000000        1.024695        0.113652
      -2       1      -2        0.000000        0.938083        0.072058
       2       1       2        0.000000        1.104536        0.060505
      -2       1      -2        0.000000        0.921954        0.073426
      -3      -1      -2        0.000000        1.360147        0.099195
      -3      -1      -2        0.000000        1.363818        0.094960
       3      -1       2        0.000000        1.431782        0.071635
      -3       1      -2        0.000000        1.352775        0.083917
      -3       1      -2        0.000000        1.469694        0.087666
       3       1       2        0.000000        1.396424        0.147424
      -4      -1      -2        0.000000        1.095445        0.146762
      -4      -1      -2        0.000000        0.959166        0.152941
      -4       1      -2        0.000000        0.984886        0.130485
      -4       1      -2        0.000000        0.500000        0.500000
      -4       1      -2        0.000000        1.303840        0.112203
      -5      -1      -2        0.000000        0.412311        0.412311
      -5      -1      -2        0.000000        0.316228        0.718180
      -5       1      -2        0.000000        0.458258        0.458258
      -5       1      -2        0.000000        0.921954        0.921954
      -5      -2       2        0.000000        0.761577        0.445350
      -5       2       2        0.000000        0.754983        0.754983
      -4      -2       2        0.000000        2.097618        0.120246
      -4      -2       2        0.000000        2.054264        0.122943
      -4       2       2        0.000000        1.565248        0.316248
      -4       2       2        0.000000        2.289105        0.098214
       3      -2      -2        0.000000        6.764614        0.138152
      -3      -2       2        0.000000        6.775692        0.149230
      -3      -2       2        0.000000        6.841053        0.144038
      -3       2       2        0.000000        6.910137        0.141090
       3       2      -2        0.000000        6.743145        0.140872
      -3       2       2        0.000000        6.796323        0.176655
       2      -2      -2        0.000000        5.761076        0.113068
       2      -2      -2        0.000000        5.486347        0.121647
      -2      -2       2        0.000000        5.579426        0.119573
      -2       2       2        0.000000        5.649779        0.115341
      -2       2       2        0.000000        5.740209        0.115265
       2       2      -2        0.000000        5.607138        0.117147
      -1      -2       2        0.000000        6.517668        0.134096
      -1      -2       2        0.000000        6.586350        0.134218
       1      -2      -2        0.000000        6.695521        0.128177
       1      -2      -2        0.000000        6.594695        0.131723
      -1      -2       2        0.000000        6.941902        0.132350
       1      -2      -2        0.000000        6.518435        0.140348
      -1       2       2        0.000000        6.563536        0.143255
       1       2      -2        0.000000        6.027437        0.160581
       1       2      -2        0.000000        6.568105        0.133045
      -1       2       2        0.000000        6.666333        0.131045
       1       2      -2        0.000000        6.460650        0.136095
       0      -2       2        0.000000        4.370355        0.126536
       0      -2      -2        0.000000        4.716991        0.094221
       0      -2      -2        0.000000        4.723346        0.097333
       0      -2       2        0.000000        4.663690        0.098605
       0       2       2        0.000000        4.740253        0.096978
       0       2       2        0.000000        4.731807        0.092842
       0       2      -2        0.000000        4.786439        0.096023
      -1      -2      -2        0.000000        7.368853        0.153592
       1      -2       2        0.000000        7.645260        0.148594
      -1      -2      -2        0.000000        7.718808        0.148471
       1      -2       2        0.000000        7.645260        0.146593
       1      -2       2        0.000000        7.418221        0.152548
      -1      -2      -2        0.000000        7.542546        0.150659
      -1      -2      -2        0.000000        6.973521        0.172786
      -1      -2      -2        0.000000        7.353231        0.154620
      -1       2      -2        0.000000        7.626270        0.148971
       1       2       2        0.000000        7.457882        0.152404
       1       2       2        0.000000        7.503999        0.151448
      -1       2      -2        0.000000        7.629548        0.155593
      -2      -2      -2        0.000000        4.131586        0.095498
       2      -2       2        0.000000        4.155719        0.091239
      -2       2      -2        0.000000        4.219005        0.129995
      -2       2      -2        0.000000        4.119466        0.092060
      -3      -2      -2        0.000000        1.849324        0.100039
       3      -2       2        0.000000        2.051828        0.069406
      -3      -2      -2        0.000000        1.982423        0.087693
      -3      -2      -2        0.000000        1.941649        0.141649
      -3       2      -2        0.000000        1.979899        0.079899
      -3       2      -2        0.000000        1.944222        0.078746
      -4      -2      -2        0.000000        0.663325        0.289159
      -4      -2      -2        0.000000        0.519615        0.519615
      -4       2      -2        0.000000        0.424264        0.424264
      -4       2      -2        0.000000        0.836660        0.151095
      -5      -2      -2        0.000000        4.615192        0.135237
      -5      -2      -2        0.000000        4.622770        0.136123
      -5       2      -2        0.000000        4.310452        0.248433
      -5      -3       2        0.000000        3.762978        0.140823
      -5      -3       2        0.000000        3.809199        0.124094
      -5       3       2        0.000000        3.649658        0.243780
      -4      -3       2        0.000000        4.672259        0.126931
      -4      -3       2        0.000000        4.664762        0.121635
       4       3      -2        0.000000        4.529901        0.327520
       3      -3      -2        0.000000        0.754983        0.099240
      -3      -3       2        0.000000        0.812404        0.141583
      -3      -3       2        0.000000        0.787401        0.131657
       3       3      -2        0.000000        0.883176        0.435962
      -3       3       2        0.000000        0.670820        0.141670
      -2      -3       2        0.000000        0.458258        0.126595
       2      -3      -2        0.000000        0.412311        0.188704
      -2      -3       2        0.000000        0.435890        0.190941
      -2      -3       2        0.000000        0.728011        0.136403
       2      -3      -2        0.000000        0.100000        0.231662
      -2      -3       2        0.000000        0.244949        0.244949
       2       3      -2        0.000000        0.700000        0.383772
       1      -3      -2        0.000000        4.482187        0.094705
       1      -3      -2        0.000000        4.459821        0.087178
      -1      -3       2        0.000000        4.309292        0.098592
      -1      -3       2        0.000000        4.550824        0.111230
      -1      -3       2        0.000000        4.334743        0.097999
      -1       3       2        0.000000        4.322037        0.111336
       1       3      -2        0.000000        4.393177        0.135243
      -1       3       2        0.000000        4.275512        0.098192
       0      -3       2        0.000000        1.865476        0.147919
       0      -3       2        0.000000        2.128380        0.064403
       0      -3      -2        0.000000        2.137756        0.064112
       0      -3      -2        0.000000        2.242766        0.051876
      -1      -3      -2        0.000000        2.347339        0.165596
      -1      -3      -2        0.000000        2.685144        0.069805
       1      -3       2        0.000000        2.529822        0.146547
      -1      -3      -2        0.000000        2.679552        0.071871
       1      -3       2        0.000000        2.700000        0.069411
      -1       3      -2        0.000000        2.673948        0.085513
       1       3       2        0.000000        2.570992        0.076999
       1       3       2        0.000000        2.758623        0.071617
      -2      -3      -2        0.000000        3.753665        0.093064
       2      -3       2        0.000000        3.640055        0.090407
      -2      -3      -2        0.000000        3.620773        0.085239
      -2      -3      -2        0.000000        3.693237        0.090460
      -2      -3      -2        0.000000        3.943349        0.089779
      -2       3      -2        0.000000        3.717526        0.117526
       3      -3       2        0.000000        4.029888        0.091615
      -3      -3      -2        0.000000        3.885872        0.110955
      -3      -3      -2        0.000000        3.835362        0.103070
      -4      -3      -2        0.000000        4.679744        0.125625
      -4      -3      -2        0.000000        4.710626        0.121509
      -5      -3      -2        0.000000        2.896550        0.148823
      -5      -3      -2        0.000000        2.787472        0.147396
      -5      -4       2        0.000000        4.315090        0.148556
      -5      -4       2        0.000000        4.465423        0.152651
      -4      -4       2        0.000000        0.774597        0.284699
      -4      -4       2        0.000000        0.400000        0.400000
      -4       4       2        0.000000        0.424264        0.638751
      -3      -4       2        0.000000        0.565685        0.265685
      -3      -4       2        0.000000        0.200000        0.279583
       3      -4      -2        0.000000        0.412311        0.412311
       3       4      -2        0.000000        0.141421        0.701194
      -3       4       2        0.000000        0.734847        0.734847
       2      -4      -2        0.000000        0.412311        0.188704
      -2      -4       2        0.000000        0.424264        0.282843
       2      -4      -2        0.000000        0.458258        0.175415
      -2      -4       2        0.000000        0.223607        0.223607
      -2      -4       2        0.000000        0.387298        0.387298
      -2      -4       2        0.000000        0.761577        0.281994
      -2       4       2        0.000000        0.435890        0.435890
      -1      -4       2        0.000000        3.324154        0.082241
       1      -4      -2        0.000000        3.358571        0.064637
       1      -4      -2        0.000000        3.249615        0.082598
      -1      -4       2        0.000000        2.981610        0.097169
      -1       4       2        0.000000        3.280244        0.099049
       0      -4      -2        0.000000        8.051087        0.158685
       0      -4       2        0.000000        7.939773        0.161599
       0      -4       2        0.000000        7.996249        0.164263
       0      -4      -2        0.000000        7.950472        0.165229
      -1      -4      -2        0.000000        1.389244        0.077757
      -1      -4      -2        0.000000        1.319091        0.098435
       1      -4       2        0.000000        1.516575        0.074355
      -1       4      -2        0.000000        1.469694        0.094921
       2      -4       2        0.000000        2.722132        0.080163
      -2      -4      -2        0.000000        2.632489        0.090836
      -2      -4      -2        0.000000        2.688866        0.081185
      -2      -4      -2        0.000000        2.525866        0.134214
      -2      -4      -2        0.000000        2.751363        0.077415
      -2       4      -2        0.000000        2.622975        0.120976
      -3      -4      -2        0.000000        9.684524        0.203490
       3      -4       2        0.000000        9.718539        0.197510
      -3      -4      -2        0.000000        9.716995        0.200168
      -4      -4      -2        0.000000        4.807286        0.132888
      -4      -4      -2        0.000000        4.716991        0.131143
      -5      -4      -2        0.000000        0.556776        0.556776
      -5      -4      -2        0.000000        1.024695        0.289848
      -5       4      -2        0.000000        0.400000        0.787434
      -5      -5       2        0.000000        1.058301        0.344158
      -4      -5       2        0.000000        0.824621        0.295471
      -4      -5       2        0.000000        0.678233        0.346571
       3      -5      -2        0.000000        0.346410        0.346410
      -3      -5       2        0.000000        0.100000        0.389898
      -3      -5       2        0.000000        0.479583        0.479583
      -3       5       2        0.000000        0.173205        0.657457
       2      -5      -2        0.000000        2.437212        0.060239
      -2      -5       2        0.000000        2.321637        0.101277
       2      -5      -2        0.000000        2.116601        0.094226
      -2      -5       2        0.000000        2.364318        0.079586
      -2      -5       2        0.000000        2.321637        0.090046
      -2       5       2        0.000000        2.698148        0.140805
       1      -5      -2        0.000000        3.430743        0.069196
      -1      -5       2        0.000000        3.182766        0.098937
      -1      -5       2        0.000000        3.439477        0.091343
       1      -5      -2        0.000000        3.421988        0.067886
       1      -5      -2        0.000000        3.426368        0.090203
       0      -5      -2        0.000000        2.870540        0.070540
       0      -5       2        0.000000        2.803569        0.086954
       0      -5       2        0.000000        2.863564        0.072507
       0      -5      -2        0.000000        2.847806        0.085561
       1      -5       2        0.000000        5.653318        0.127922
      -1      -5      -2        0.000000        5.706137        0.124023
      -1      -5      -2        0.000000        5.835238        0.126473
      -1       5      -2        0.000000        5.738467        0.138467
      -2      -5      -2        0.000000        6.525335        0.144896
       2      -5       2        0.000000        6.490763        0.141747
      -2      -5      -2        0.000000        6.482284        0.141148
      -2      -5      -2        0.000000        6.522270        0.143398
      -2      -5      -2        0.000000        6.662582        0.140313
      -2       5      -2        0.000000        6.505382        0.163458
      -3      -5      -2        0.000000        2.973214        0.109650
      -3      -5      -2        0.000000        2.979933        0.100697
       3      -5       2        0.000000        3.077337        0.095726
      -4      -5      -2        0.000000        2.068816        0.132324
      -4      -5      -2        0.000000        2.039608        0.147519
      -5      -5      -2        0.000000        0.458258        0.458258
      -4      -6       2        0.000000        1.034408        0.286077
      -4      -6       2        0.000000        0.200000        0.534847
      -4       6       2        0.000000        0.728011        0.728011
      -3      -6       2        0.000000        0.479583        0.479583
      -3      -6       2        0.000000        0.479583        0.479583
       3      -6      -2        0.000000        0.787401        0.204306
      -3       6       2        0.000000        0.519615        0.519615
       2      -6      -2        0.000000        2.489980        0.094150
      -2      -6       2        0.000000        2.477902        0.100929
      -2      -6       2        0.000000        2.527845        0.102974
      -2      -6       2        0.000000        2.541653        0.092163
      -2       6       2        0.000000        2.645751        0.169868
       1      -6      -2        0.000000        0.979796        0.131268
      -1      -6       2        0.000000        1.058301        0.114902
      -1      -6       2        0.000000        1.109054        0.104066
      -1       6       2        0.000000        0.994987        0.182584
       0      -6      -2        0.000000        3.430743        0.082610
       0      -6       2        0.000000        3.376389        0.099195
       0      -6       2        0.000000        3.395585        0.086507
       0      -6      -2        0.000000        3.442383        0.098732
       0       6       2        0.000000        3.494281        0.098696
       1      -6       2        0.000000        9.185314        0.192539
      -1      -6      -2        0.000000        9.298925        0.186845
      -1      -6      -2        0.000000        9.307524        0.191055
      -1       6      -2        0.000000        9.085153        0.202586
      -2      -6      -2        0.000000        3.717526        0.100898
       2      -6       2        0.000000        3.749667        0.106866
      -2      -6      -2        0.000000        3.753665        0.116358
      -2      -6      -2        0.000000        3.905125        0.105125
      -2      -6      -2        0.000000        3.823611        0.106085
      -2       6      -2        0.000000        3.716181        0.142667
       3      -6       2        0.000000        0.953939        0.172914
      -3      -6      -2        0.000000        1.024695        0.188035
      -3      -6      -2        0.000000        0.721110        0.262853
      -3       6      -2        0.000000        0.793725        0.793725
      -4      -6      -2        0.000000        1.734935        0.153796
      -4      -6      -2        0.000000        1.523155        0.188988
      -4       6      -2        0.000000        0.900000        0.900000
      -4       7       2        0.000000        0.529150        0.683285
      -3      -7       2        0.000000        2.222611        0.124993
       3      -7      -2        0.000000        2.351595        0.128984
      -3      -7       2        0.000000        2.111871        0.137029
       2      -7      -2        0.000000        1.284523        0.144348
      -2      -7       2        0.000000        1.014889        0.137393
      -2      -7       2        0.000000        1.296148        0.147236
      -2      -7       2        0.000000        1.195826        0.161418
      -2       7       2        0.000000        1.382027        0.295749
      -1      -7       2        0.000000        2.959730        0.097912
      -1      -7       2        0.000000        2.930870        0.109523
       1      -7      -2        0.000000        2.932576        0.104149
      -1       7       2        0.000000        2.969848        0.134359
       0      -7       2        0.000000        5.950630        0.128260
       0      -7       2        0.000000        5.856620        0.139103
       0      -7      -2        0.000000        5.830952        0.139731
       0      -7      -2        0.000000        5.812917        0.126969
       0       7       2        0.000000        6.138404        0.137570
       1      -7       2        0.000000        2.233831        0.075127
      -1      -7      -2        0.000000        2.231591        0.110271
      -1      -7      -2        0.000000        2.222611        0.098935
       1      -7       2        0.000000        2.202272        0.109427
      -1       7      -2        0.000000        2.206808        0.152544
      -2      -7      -2        0.000000        0.818535        0.202094
      -2       7      -2        0.000000        0.974679        0.383071
      -3      -7      -2        0.000000        0.911043        0.255300
       3      -7       2        0.000000        0.806226        0.286611
      -3      -7      -2        0.000000        1.288410        0.157039
      -4      -7      -2        0.000000        0.894427        0.355911
      -4      -7      -2        0.000000        1.148913        0.324291
      -4       7      -2        0.000000        0.734847        0.734847
      -4      -8       2        0.000000        0.223607        0.636626
      -4       8       2        0.000000        0.824621        0.824621
       3      -8      -2        0.000000        1.714643        0.165449
      -3      -8       2        0.000000        1.593738        0.186613
      -3      -8       2        0.000000        1.726268        0.148294
      -3       8       2        0.000000        0.964365        0.964365
      -2      -8       2        0.000000        1.918333        0.174773
       2      -8      -2        0.000000        1.752142        0.152142
      -2      -8       2        0.000000        1.962142        0.134575
      -2      -8       2        0.000000        2.046949        0.139071
      -2      -8       2        0.000000        2.000000        0.115856
      -1      -8       2        0.000000        2.749545        0.111364
      -1      -8       2        0.000000        2.632489        0.122509
       1      -8      -2        0.000000        2.420744        0.131639
      -1       8       2        0.000000        2.880972        0.158841
       0      -8      -2        0.000000        1.493318        0.140544
       0      -8       2        0.000000        1.655295        0.132140
       0      -8       2        0.000000        1.627882        0.104727
       0       8       2        0.000000        2.019901        0.159793
      -1      -8      -2        0.000000        1.649242        0.109762
      -1      -8      -2        0.000000        1.513275        0.142144
       1      -8       2        0.000000        1.606238        0.136544
      -1       8      -2        0.000000        2.024846        0.178227
      -2      -8      -2        0.000000        0.911043        0.183032
      -2      -8      -2        0.000000        1.014889        0.214889
      -2      -8      -2        0.000000        0.640312        0.416706
       2      -8       2        0.000000        0.888819        0.572592
      -2      -8      -2        0.000000        0.583095        0.583095
      -2       8      -2        0.000000        1.220656        0.326228
       3      -8       2        0.000000        0.608276        0.608276
      -3      -8      -2        0.000000        0.223607        0.469214
      -3      -8      -2        0.000000        1.341641        0.197088
      -3       8      -2        0.000000        0.632456        0.632456
      -4      -8      -2        0.000000        1.345362        0.296554
      -3      -9       2        0.000000        0.583095        0.583095
      -3      -9       2        0.000000        0.854400        0.364502
      -3       9       2        0.000000        0.300000        1.011488
      -2      -9       2        0.000000        1.519868        0.235345
       2      -9      -2        0.000000        1.714643        0.168680
      -2      -9       2        0.000000        1.462874        0.258714
      -2      -9       2        0.000000        1.634013        0.181430
      -2      -9       2        0.000000        1.268858        0.177987
      -1      -9       2        0.000000        0.616441        0.616441
      -1       9       2        0.000000        0.714143        0.714143
       0      -9       2        0.000000        2.600000        0.140325
       0      -9      -2        0.000000        2.487971        0.144896
       0       9      -2        0.000000        2.557342        0.188799
      -1      -9      -2        0.000000        0.655744        0.655744
      -1      -9      -2        0.000000        0.574456        0.574456
      -1       9      -2        0.000000        1.212436        0.352203
      -2      -9      -2        0.000000        0.509902        0.509902
      -2      -9      -2        0.000000        0.574456        0.574456
       2      -9       2        0.000000        0.943398        0.287654
      -2       9      -2        0.000000        0.244949        0.794282
      -3      -9      -2        0.000000        0.547723        0.547723
      -3      -9      -2        0.000000        0.911043        0.911043
       3      -9       2        0.000000        1.109054        0.334457
      -2     -10       2        0.000000        0.812404        0.354146
      -2     -10       2        0.000000        0.670820        0.670820
      -2     -10       2        0.000000        0.714143        0.714143
      -1     -10       2        0.000000        2.275961        0.166459
       1     -10      -2        0.000000        2.345208        0.163465
       0     -10       2        0.000000        0.830662        0.383449
      -1     -10      -2        0.000000        0.932738        0.572183
      -1     -10      -2        0.000000        0.489898        0.489898
      -2     -10      -2        0.000000        0.938083        0.313583
      -5       0       3        0.000000        1.717556        0.158711
      -5       0       3        0.000000        1.873499        0.233377
      -4       0       3        0.000000        0.346410        0.346410
      -4       0       3        0.000000        0.100000        0.661577
       3       0      -3        0.000000        2.264950        0.060410
      -3       0       3        0.000000        2.111871        0.089496
      -3       0       3        0.000000        2.107131        0.077352
      -3       0       3        0.000000        1.827567        0.157237
      -2       0       3        0.000000        0.141421        0.158579
      -2       0       3        0.000000        0.223607        0.266291
       2       0      -3        0.000000        0.141421        0.141421
       2       0      -3        0.000000        0.282843        0.282843
       1       0      -3        0.000000       29.440109        0.587379
      -1       0       3        0.000000       30.059774        0.574354
       1       0      -3        0.000000       28.606992        0.610742
      -1       0       3        0.000000       29.433484        0.588034
      -1       0       3        0.000000       30.001667        0.583475
       1       0      -3        0.000000       29.623639        0.582462
       1       0      -3        0.000000       30.133204        0.573434
       0       0      -3        0.000000        0.000000        0.173205
       1       0       3        0.000000        8.374963        0.166431
      -1       0      -3        0.000000        8.178019        0.169898
      -1       0      -3        0.000000        8.266801        0.172359
       1       0       3        0.000000        8.351048        0.169361
       1       0       3        0.000000        8.272243        0.167923
      -1       0      -3        0.000000        8.293974        0.168089
       1       0       3        0.000000        8.651012        0.159840
      -2       0      -3        0.000000        0.264575        0.264575
       2       0       3        0.000000        0.141421        0.158579
      -2       0      -3        0.000000        0.412311        0.412311
      -2       0      -3        0.000000        0.331662        0.158457
      -3       0      -3        0.000000        2.976575        0.090401
      -3       0      -3        0.000000        3.106445        0.148405
      -3       0      -3        0.000000        2.984962        0.086687
       3       0       3        0.000000        2.951271        0.075510
      -4       0      -3        0.000000        0.500000        0.358579
      -5       0      -3        0.000000        0.754983        0.367685
      -5       0      -3        0.000000        0.953939        0.953939
      -5      -1       3        0.000000        0.648074        0.648074
      -5       1       3        0.000000        0.781025        0.311983
      -5       1       3        0.000000        1.303840        0.485305
      -4      -1       3        0.000000        0.721110        0.221110
      -4      -1       3        0.000000        0.500000        0.400000
      -4       1       3        0.000000        0.781025        0.172749
      -4       1       3        0.000000        0.447214        0.447214
      -4       1       3        0.000000        0.812404        0.712404
      -3      -1       3        0.000000        5.559676        0.128286
      -3      -1       3        0.000000        5.571355        0.122502
      -3       1       3        0.000000        5.647123        0.119918
       3       1      -3        0.000000        5.551576        0.113746
      -3       1       3        0.000000        5.575841        0.125153
       3       1      -3        0.000000        5.738467        0.120638
       3       1      -3        0.000000        5.579426        0.113166
      -2      -1       3        0.000000        7.385120        0.155321
       2      -1      -3        0.000000        7.530604        0.145484
      -2      -1       3        0.000000        7.446476        0.151272
       2       1      -3        0.000000        7.477968        0.147211
       2       1      -3        0.000000        7.376991        0.152035
      -2       1       3        0.000000        7.475293        0.167762
      -2       1       3        0.000000        7.338937        0.154231
      -2       1       3        0.000000        7.306846        0.153525
       2       1      -3        0.000000        7.614460        0.149207
       1      -1      -3        0.000000        6.403124        0.128572
      -1      -1       3        0.000000        6.519202        0.125455
       1      -1      -3        0.000000        6.386705        0.127312
       1      -1      -3        0.000000        6.327717        0.129330
      -1      -1       3        0.000000        6.237788        0.133691
      -1      -1       3        0.000000        6.192738        0.132210
      -1      -1       3        0.000000        6.593178        0.125567
      -1       1       3        0.000000        6.291264        0.130907
      -1       1       3        0.000000        6.767570        0.133566
       1       1      -3        0.000000        6.380439        0.128239
       1       1      -3        0.000000        6.422616        0.132147
      -1       1       3        0.000000        6.374167        0.127568
       1       1      -3        0.000000        6.337981        0.130727
       0      -1      -3        0.000000       18.318843        0.375320
       0      -1       3        0.000000       18.914280        0.364348
       0      -1       3        0.000000       19.234344        0.356315
       0      -1      -3        0.000000       17.805898        0.385221
       0       1      -3        0.000000       18.193131        0.376004
       0       1       3        0.000000       18.598387        0.369564
       0       1      -3        0.000000       19.669520        0.349064
       0       1       3        0.000000       18.463207        0.371772
       0       1       3        0.000000       18.588706        0.368388
       1      -1       3        0.000000        2.306513        0.079407
       1      -1       3        0.000000        2.269361        0.055767
      -1      -1      -3        0.000000        2.140093        0.076117
      -1      -1      -3        0.000000        2.179449        0.060487
       1      -1       3        0.000000        2.197726        0.057633
      -1      -1      -3        0.000000        2.211334        0.057269
      -1      -1      -3        0.000000        2.240536        0.054215
       1      -1       3        0.000000        2.362202        0.057859
       1       1       3        0.000000        2.227106        0.066087
      -1       1      -3        0.000000        2.233831        0.056677
       1       1       3        0.000000        2.332381        0.056419
      -1       1      -3        0.000000        2.218107        0.057089
       1       1       3        0.000000        2.345208        0.058289
      -1       1      -3        0.000000        2.291288        0.070928
       1       1       3        0.000000        2.280351        0.059991
      -2      -1      -3        0.000000        0.953939        0.076443
      -2      -1      -3        0.000000        1.081665        0.066776
       2      -1       3        0.000000        1.122497        0.064197
      -2       1      -3        0.000000        1.039230        0.133692
       2       1       3        0.000000        1.004988        0.072250
      -2       1      -3        0.000000        1.090871        0.071067
      -2       1      -3        0.000000        1.135782        0.063401
       2       1       3        0.000000        1.195826        0.068883
       3      -1       3        0.000000        4.436215        0.099165
      -3      -1      -3        0.000000        4.386342        0.108493
      -3      -1      -3        0.000000        4.518849        0.107500
       3       1       3        0.000000        4.476606        0.099392
      -3       1      -3        0.000000        4.453089        0.104526
      -3       1      -3        0.000000        4.501111        0.104521
      -4      -1      -3        0.000000        1.053565        0.368000
      -4      -1      -3        0.000000        1.009950        0.149718
      -4      -1      -3        0.000000        0.547723        0.347723
      -4       1      -3        0.000000        0.842615        0.157050
      -4       1      -3        0.000000        0.565685        0.565685
       4       1       3        0.000000        0.574456        0.213901
      -4       1      -3        0.000000        0.655744        0.231480
      -5      -1      -3        0.000000        1.212436        0.202485
      -5      -1      -3        0.000000        1.191638        0.567138
      -5      -1      -3        0.000000        0.824621        0.355580
      -5       1      -3        0.000000        0.974679        0.239833
      -5       1      -3        0.000000        1.280625        0.640312
      -5       1      -3        0.000000        1.392839        0.151871
      -5      -2       3        0.000000        1.200000        0.220204
      -5      -2       3        0.000000        0.979796        0.272689
      -5       2       3        0.000000        0.900000        0.267544
      -5       2       3        0.000000        0.812404        0.812404
      -4      -2       3        0.000000        3.420526        0.117497
      -4      -2       3        0.000000        3.534119        0.107751
      -4       2       3        0.000000        3.580503        0.101997
       3      -2      -3        0.000000        8.111720        0.157476
      -3      -2       3        0.000000        7.886698        0.168537
      -3      -2       3        0.000000        7.959899        0.171447
       3       2      -3        0.000000        7.906327        0.163588
      -3       2       3        0.000000        8.192069        0.190819
      -3       2       3        0.000000        8.069696        0.164635
       2      -2      -3        0.000000        9.523655        0.180208
      -2      -2       3        0.000000        8.889882        0.200808
      -2      -2       3        0.000000        9.421253        0.184370
      -2      -2       3        0.000000        9.262289        0.186497
       2      -2      -3        0.000000        9.200000        0.187786
      -2       2       3        0.000000        9.446163        0.181715
       2       2      -3        0.000000        9.339165        0.184385
      -2       2       3        0.000000        9.229843        0.187166
      -1      -2       3        0.000000        2.647640        0.065006
       1      -2      -3        0.000000        2.738613        0.057195
       1      -2      -3        0.000000        2.611513        0.081691
      -1      -2       3        0.000000        2.692582        0.067701
       1      -2      -3        0.000000        2.662705        0.064629
      -1      -2       3        0.000000        2.867054        0.077789
      -1       2       3        0.000000        2.716616        0.055789
      -1       2       3        0.000000        2.681418        0.064167
       1       2      -3        0.000000        2.657066        0.064770
      -1       2       3        0.000000        2.720294        0.089705
       0      -2      -3        0.000000        7.519973        0.155192
       0      -2       3        0.000000        6.962040        0.178236
       0      -2      -3        0.000000        7.801923        0.146859
       0      -2       3        0.000000        7.688953        0.151712
       0       2      -3        0.000000        7.621024        0.153092
       0       2       3        0.000000        7.662245        0.152252
       0       2       3        0.000000        7.915807        0.146637
       0       2       3        0.000000        7.789095        0.147106
       0       2      -3        0.000000        7.463913        0.170766
      -1      -2      -3        0.000000        1.711724        0.059453
       1      -2       3        0.000000        1.760682        0.048957
       1      -2       3        0.000000        1.606238        0.119631
       1      -2       3        0.000000        1.577973        0.054819
      -1      -2      -3        0.000000        1.612452        0.056817
      -1      -2      -3        0.000000        1.673320        0.117685
       1      -2       3        0.000000        1.539480        0.059616
      -1      -2      -3        0.000000        1.555635        0.052305
      -1       2      -3        0.000000        1.600000        0.057275
      -1       2      -3        0.000000        1.661325        0.073874
       1       2       3        0.000000        1.694107        0.060094
       1       2       3        0.000000        1.621727        0.062882
      -2      -2      -3        0.000000        3.049590        0.093241
       2      -2       3        0.000000        3.043025        0.074860
      -2      -2      -3        0.000000        2.917190        0.085230
      -2       2      -3        0.000000        3.138471        0.108619
       3      -2       3        0.000000        0.200000        0.212311
      -3      -2      -3        0.000000        0.387298        0.387298
      -3      -2      -3        0.000000        0.141421        0.294469
       3      -2       3        0.000000        0.648074        0.648074
      -3      -2      -3        0.000000        0.223607        0.245435
      -3       2      -3        0.000000        0.264575        0.477045
      -3       2      -3        0.000000        0.387298        0.287298
      -3       2      -3        0.000000        0.173205        0.239105
      -4      -2      -3        0.000000        1.204159        0.255476
      -4      -2      -3        0.000000        1.191638        0.157229
      -4      -2      -3        0.000000        1.292285        0.126094
      -4       2      -3        0.000000        1.378405        0.113494
      -4       2      -3        0.000000        0.538516        0.538516
      -5      -2      -3        0.000000        4.613025        0.131954
      -5      -2      -3        0.000000        4.340507        0.132182
      -5       2      -3        0.000000        4.086563        0.234291
      -5      -3       3        0.000000        2.727636        0.133412
      -5      -3       3        0.000000        2.351595        0.158424
      -5       3       3        0.000000        2.630589        0.302500
      -4      -3       3        0.000000        5.948109        0.135192
      -4      -3       3        0.000000        6.085228        0.141324
      -4       3       3        0.000000        5.899152        0.131137
       4       3      -3        0.000000        5.626722        0.217471
      -3      -3       3        0.000000        4.223742        0.101850
      -3      -3       3        0.000000        4.096340        0.111368
       3      -3      -3        0.000000        4.153312        0.092524
       2      -3      -3        0.000000        2.158703        0.065858
      -2      -3       3        0.000000        2.090454        0.073030
      -2      -3       3        0.000000        2.090454        0.070554
      -2      -3       3        0.000000        2.123676        0.064550
      -2      -3       3        0.000000        2.032240        0.082881
       2      -3      -3        0.000000        2.054264        0.064289
      -2      -3       3        0.000000        2.332381        0.082936
      -2       3       3        0.000000        2.167948        0.070331
      -2       3       3        0.000000        1.811077        0.155782
       2       3      -3        0.000000        1.939072        0.155816
      -1      -3       3        0.000000       10.738715        0.208283
       1      -3      -3        0.000000       10.609430        0.210391
      -1      -3       3        0.000000       10.547986        0.212126
       1      -3      -3        0.000000       10.715876        0.204454
      -1      -3       3        0.000000       10.886230        0.211493
      -1       3       3        0.000000       10.333441        0.215635
       1       3      -3        0.000000       10.053358        0.239082
      -1       3       3        0.000000       10.615084        0.217007
       0      -3      -3        0.000000       10.894035        0.217425
       0      -3      -3        0.000000       10.921081        0.214073
       0      -3       3        0.000000       10.678951        0.221418
       0       3      -3        0.000000       10.566930        0.239297
       0       3       3        0.000000       11.326518        0.208964
      -1      -3      -3        0.000000        1.122497        0.088089
      -1      -3      -3        0.000000        1.077033        0.072045
      -1      -3      -3        0.000000        1.349074        0.204521
      -1      -3      -3        0.000000        1.122497        0.064197
       1      -3       3        0.000000        1.095445        0.070750
       1       3       3        0.000000        1.086278        0.076328
      -1       3      -3        0.000000        1.200000        0.090946
      -2      -3      -3        0.000000        2.061553        0.084181
      -2      -3      -3        0.000000        2.251666        0.088335
      -2      -3      -3        0.000000        2.042058        0.064686
       2      -3       3        0.000000        2.044505        0.074733
      -2      -3      -3        0.000000        2.107131        0.072432
      -2       3      -3        0.000000        2.154066        0.116911
      -3      -3      -3        0.000000        1.539480        0.097260
      -3      -3      -3        0.000000        1.529706        0.108439
      -4      -3      -3        0.000000        5.172040        0.129224
      -4      -3      -3        0.000000        5.257376        0.132925
      -5      -3      -3        0.000000        4.273172        0.139167
      -5      -3      -3        0.000000        4.016217        0.144525
      -5      -4       3        0.000000        4.243819        0.151143
      -5      -4       3        0.000000        4.257934        0.142111
      -5       4       3        0.000000        3.800000        0.290014
      -4      -4       3        0.000000        1.670329        0.134100
      -4      -4       3        0.000000        2.029778        0.129778
      -3      -4       3        0.000000        1.178983        0.130174
       3      -4      -3        0.000000        1.236932        0.092379
      -3      -4       3        0.000000        1.204159        0.113288
       3       4      -3        0.000000        1.486607        0.329023
      -2      -4       3        0.000000        3.866523        0.090281
       2      -4      -3        0.000000        3.861347        0.090405
      -2      -4       3        0.000000        3.813135        0.094264
      -2      -4       3        0.000000        3.765634        0.100938
       2      -4      -3        0.000000        3.848376        0.081415
       2       4      -3        0.000000        3.604164        0.176337
       1      -4      -3        0.000000        1.977372        0.069494
      -1      -4       3        0.000000        1.892089        0.083775
      -1      -4       3        0.000000        1.964688        0.072599
      -1       4       3        0.000000        1.946792        0.100174
       1       4      -3        0.000000        1.555635        0.202860
       0      -4      -3        0.000000        5.592853        0.115627
       0      -4      -3        0.000000        5.625833        0.122198
       0      -4       3        0.000000        5.542563        0.123153
       0       4       3        0.000000        5.744563        0.119618
      -1      -4      -3        0.000000        4.526588        0.100529
      -1      -4      -3        0.000000        4.291853        0.101387
      -2      -4      -3        0.000000        4.898979        0.111496
       2      -4       3        0.000000        4.943683        0.110464
      -2      -4      -3        0.000000        4.839421        0.116075
      -2      -4      -3        0.000000        5.192302        0.125745
      -2      -4      -3        0.000000        4.878524        0.113023
      -2       4      -3        0.000000        4.907138        0.135346
       3      -4       3        0.000000        4.257934        0.101012
      -3      -4      -3        0.000000        4.053394        0.110045
      -3      -4      -3        0.000000        4.214262        0.111823
      -4      -4      -3        0.000000        2.330236        0.127964
      -4      -4      -3        0.000000        2.215852        0.127791
      -5      -4      -3        0.000000        1.526434        0.234149
      -5      -4      -3        0.000000        1.702939        0.176505
      -5      -5       3        0.000000        0.748331        0.748331
      -5      -5       3        0.000000        1.232883        0.294800
      -4      -5       3        0.000000        0.900000        0.229180
      -4      -5       3        0.000000        1.000000        0.251669
      -3      -5       3        0.000000        1.691153        0.106856
       3      -5      -3        0.000000        1.606238        0.096271
      -3      -5       3        0.000000        1.746425        0.124697
      -3       5       3        0.000000        0.748331        0.748331
       2      -5      -3        0.000000        1.086278        0.106482
      -2      -5       3        0.000000        1.000000        0.122504
      -2      -5       3        0.000000        1.148913        0.085898
      -2      -5       3        0.000000        0.979796        0.125396
      -2       5       3        0.000000        0.264575        0.398750
      -1      -5       3        0.000000        2.416609        0.082086
      -1      -5       3        0.000000        2.370654        0.079366
       1      -5      -3        0.000000        2.260531        0.083377
      -1       5       3        0.000000        2.310844        0.104036
       0      -5      -3        0.000000        2.177154        0.084309
       0      -5       3        0.000000        2.206808        0.078428
       0      -5      -3        0.000000        2.184033        0.060357
       0      -5       3        0.000000        2.100000        0.067760
       0       5       3        0.000000        2.227106        0.082345
      -1      -5      -3        0.000000        7.945439        0.169836
      -1      -5      -3        0.000000        8.046738        0.164480
       1      -5       3        0.000000        8.003749        0.167934
      -1       5      -3        0.000000        8.106787        0.174574
      -2      -5      -3        0.000000        8.459905        0.177997
      -2      -5      -3        0.000000        8.477618        0.176413
      -2      -5      -3        0.000000        8.424963        0.176327
       2      -5       3        0.000000        8.505292        0.175226
      -2       5      -3        0.000000        8.424369        0.192723
      -3      -5      -3        0.000000        0.616441        0.216441
      -3       5      -3        0.000000        0.830662        0.456497
      -4      -5      -3        0.000000        0.519615        0.519615
      -4      -5      -3        0.000000        0.479583        0.479583
      -4       5      -3        0.000000        0.100000        0.859166
      -5      -5      -3        0.000000        1.208305        0.302766
      -4      -6       3        0.000000        1.039230        0.284247
      -4       6       3        0.000000        0.400000        0.695445
      -3      -6       3        0.000000        0.608276        0.408276
      -3      -6       3        0.000000        0.591608        0.308765
       3      -6      -3        0.000000        0.000000        0.479583
      -3       6       3        0.000000        0.818535        0.818535
      -2      -6       3        0.000000        1.754993        0.114871
      -2      -6       3        0.000000        1.732051        0.094980
      -2      -6       3        0.000000        1.618641        0.111989
       2      -6      -3        0.000000        1.805547        0.102608
      -1      -6       3        0.000000        3.028201        0.095625
       1      -6      -3        0.000000        3.001666        0.096498
      -1      -6       3        0.000000        3.116087        0.097810
      -1       6       3        0.000000        3.203123        0.117674
       0      -6       3        0.000000        6.700746        0.141783
       0      -6      -3        0.000000        6.693280        0.138892
       0      -6       3        0.000000        6.670082        0.149346
       0      -6      -3        0.000000        6.667833        0.149398
       0       6       3        0.000000        6.971370        0.144951
      -1      -6      -3        0.000000        3.414674        0.099557
      -1      -6      -3        0.000000        3.349627        0.092327
       1      -6       3        0.000000        3.405877        0.098310
      -1       6      -3        0.000000        3.354102        0.116819
      -2      -6      -3        0.000000        2.215852        0.106350
      -2      -6      -3        0.000000        1.974842        0.098675
      -2      -6      -3        0.000000        2.206808        0.104428
       2      -6       3        0.000000        2.104757        0.107258
      -2       6      -3        0.000000        2.135416        0.175824
       3      -6       3        0.000000        2.527845        0.115377
      -3      -6      -3        0.000000        2.471841        0.122373
      -3      -6      -3        0.000000        2.334524        0.129983
      -3       6      -3        0.000000        2.754995        0.191794
      -4      -6      -3        0.000000        3.146427        0.154771
      -4      -6      -3        0.000000        3.125700        0.147445
      -4      -7       3        0.000000        0.700000        0.700000
      -4      -7       3        0.000000        0.748331        0.748331
      -3      -7       3        0.000000        0.509902        0.509902
       3      -7      -3        0.000000        0.412311        0.412311
      -3       7       3        0.000000        1.232883        0.491263
       2      -7      -3        0.000000        4.080441        0.109295
      -2      -7       3        0.000000        3.943349        0.105381
      -2      -7       3        0.000000        3.919184        0.116553
      -2      -7       3        0.000000        3.843176        0.120274
       1      -7      -3        0.000000        5.923681        0.137491
      -1      -7       3        0.000000        5.969925        0.137258
      -1      -7       3        0.000000        5.923681        0.134035
      -1       7       3        0.000000        5.920304        0.154023
       0      -7       3        0.000000        2.158703        0.106875
       0      -7      -3        0.000000        2.181742        0.074612
       0      -7       3        0.000000        2.181742        0.086510
       0      -7      -3        0.000000        2.273763        0.108123
       0       7       3        0.000000        2.262742        0.181876
       1      -7       3        0.000000        2.533772        0.078166
      -1      -7      -3        0.000000        2.653300        0.105752
      -1      -7      -3        0.000000        2.555386        0.091649
       1      -7       3        0.000000        2.397916        0.108811
      -1       7      -3        0.000000        2.559297        0.138553
       2      -7       3        0.000000        0.640312        0.357470
      -2      -7      -3        0.000000        0.583095        0.251433
      -2      -7      -3        0.000000        0.692820        0.268556
      -2      -7      -3        0.000000        0.173205        0.383571
      -2      -7      -3        0.000000        0.500000        0.500000
      -2       7      -3        0.000000        0.836660        0.378402
       3      -7       3        0.000000        3.453983        0.126822
      -3      -7      -3        0.000000        3.280244        0.122713
      -3      -7      -3        0.000000        3.609709        0.122590
      -4      -7      -3        0.000000        2.114237        0.167445
      -4      -7      -3        0.000000        2.165641        0.168142
      -4      -8       3        0.000000        0.616441        0.616441
       3      -8      -3        0.000000        4.053394        0.131659
      -3      -8       3        0.000000        3.769615        0.136435
      -3      -8       3        0.000000        3.844477        0.148533
      -2      -8       3        0.000000        3.854867        0.114546
      -2      -8       3        0.000000        4.081666        0.123131
       2      -8      -3        0.000000        3.962323        0.129569
      -1      -8       3        0.000000        0.632456        0.332456
      -1      -8       3        0.000000        0.741620        0.283362
       1      -8      -3        0.000000        0.866025        0.233570
      -1       8       3        0.000000        0.994987        0.339244
       0      -8       3        0.000000        2.624881        0.100995
       0      -8      -3        0.000000        2.707397        0.118961
       0      -8       3        0.000000        2.445404        0.125921
       0       8       3        0.000000        2.762245        0.133558
      -1      -8      -3        0.000000        0.806226        0.249449
      -1      -8      -3        0.000000        0.282843        0.431300
      -1      -8      -3        0.000000        0.435890        0.435890
       1      -8       3        0.000000        0.754983        0.254983
      -1       8      -3        0.000000        0.866025        0.376127
      -2      -8      -3        0.000000        3.701351        0.144667
      -2      -8      -3        0.000000        3.790778        0.112463
      -2      -8      -3        0.000000        3.852272        0.121320
      -2      -8      -3        0.000000        3.798684        0.124449
       2      -8       3        0.000000        3.773592        0.125305
      -2       8      -3        0.000000        3.672874        0.195806
      -3      -8      -3        0.000000        0.974679        0.326605
       3      -8       3        0.000000        0.100000        0.563325
      -3       8      -3        0.000000        0.346410        0.780533
      -4      -8      -3        0.000000        1.292285        0.403465
      -3      -9       3        0.000000        3.472751        0.166696
      -3      -9       3        0.000000        3.146427        0.163140
      -2      -9       3        0.000000        0.346410        0.519615
       2      -9      -3        0.000000        0.529150        0.529150
      -2      -9       3        0.000000        0.640312        0.640312
      -2      -9       3        0.000000        0.640312        0.640312
      -2      -9       3        0.000000        1.004988        0.211262
       1      -9      -3        0.000000        1.113553        0.219126
      -1      -9       3        0.000000        1.072381        0.217980
       0      -9       3        0.000000        1.300000        0.190946
       0      -9      -3        0.000000        0.959166        0.252060
       0       9      -3        0.000000        1.104536        0.356205
       1      -9       3        0.000000        3.342155        0.134352
      -1      -9      -3        0.000000        2.930870        0.145193
      -1      -9      -3        0.000000        3.410279        0.166824
      -1       9      -3        0.000000        3.366007        0.183240
      -2      -9      -3        0.000000        1.204159        0.179464
       2      -9       3        0.000000        1.276715        0.218414
      -2       9      -3        0.000000        1.000000        1.000000
       3      -9       3        0.000000        2.211334        0.176635
      -3      -9      -3        0.000000        2.231591        0.153130
      -2     -10       3        0.000000        1.034408        0.247007
      -2     -10       3        0.000000        1.048809        0.393065
       2     -10      -3        0.000000        0.412311        0.465186
      -2     -10       3        0.000000        0.943398        0.719791
      -1     -10       3        0.000000        0.806226        0.474563
       1     -10      -3        0.000000        0.616441        0.616441
       0     -10      -3        0.000000        1.345362        0.227328
       0     -10       3        0.000000        1.486607        0.229626
       0     -10      -3        0.000000        1.479865        0.300882
      -1     -10      -3        0.000000        1.183216        0.272173
      -1     -10      -3        0.000000        1.414214        0.314214
       2     -10       3        0.000000        1.621727        0.214603
      -2     -10      -3        0.000000        1.688194        0.174920
      -2      10      -3        0.000000        1.640122        0.526569
      -5       0       4        0.000000        0.141421        0.514322
      -5       0       4        0.000000        0.223607        0.447214
      -4       0       4        0.000000        1.272792        0.110897
      -4       0       4        0.000000        1.118034        0.148498
      -4       0       4        0.000000        0.489898        0.489898
      -3       0       4        0.000000        0.519615        0.519615
      -3       0       4        0.000000        0.447214        0.182638
      -3       0       4        0.000000        0.000000        0.374166
       2       0      -4        0.000000        1.802776        0.059216
      -2       0       4        0.000000        1.723369        0.056036
      -2       0       4        0.000000        1.700000        0.106262
      -2       0       4        0.000000        1.729162        0.070849
       2       0      -4        0.000000        1.852026        0.052026
      -1       0       4        0.000000        0.100000        0.100000
       1       0      -4        0.000000        0.346410        0.346410
       1       0      -4        0.000000        0.200000        0.100000
      -1       0       4        0.000000        0.141421        0.041421
       1       0      -4        0.000000        0.141421        0.141421
       0       0       4        0.000000       11.032226        0.216034
       0       0      -4        0.000000       10.944405        0.217803
       0       0       4        0.000000       11.128791        0.215955
       0       0      -4        0.000000       10.969959        0.219145
      -1       0      -4        0.000000        0.223607        0.123607
      -1       0      -4        0.000000        0.223607        0.223607
      -1       0      -4        0.000000        0.100000        0.144949
       1       0       4        0.000000        0.300000        0.126795
      -2       0      -4        0.000000        9.805101        0.203538
       2       0       4        0.000000        9.991496        0.198131
       2       0       4        0.000000       10.046392        0.195504
      -2       0      -4        0.000000        9.968450        0.200134
      -3       0      -4        0.000000        0.316228        0.411783
      -3       0      -4        0.000000        0.316228        0.316228
      -4       0      -4        0.000000        4.328972        0.114711
       4       0       4        0.000000        4.392038        0.102516
      -4       0      -4        0.000000        4.339355        0.113245
      -5       0      -4        0.000000        0.836660        0.279884
      -5      -1       4        0.000000        0.948683        0.292939
      -5      -1       4        0.000000        0.754983        0.380818
      -5       1       4        0.000000        0.806226        0.806226
      -5       1       4        0.000000        1.170470        0.190674
      -4      -1       4        0.000000        2.812472        0.105075
      -4      -1       4        0.000000        2.780288        0.113829
      -4       1       4        0.000000        2.767671        0.181167
      -4       1       4        0.000000        2.978255        0.100756
      -4       1       4        0.000000        2.801785        0.098084
      -3      -1       4        0.000000        0.734847        0.151752
       3      -1      -4        0.000000        0.500000        0.139445
      -3      -1       4        0.000000        0.734847        0.126571
       3       1      -4        0.000000        0.608276        0.042591
      -3       1       4        0.000000        0.600000        0.130958
      -3       1       4        0.000000        0.374166        0.374166
       3       1      -4        0.000000        0.734847        0.151752
       3       1      -4        0.000000        0.547723        0.047723
       2      -1      -4        0.000000        4.591296        0.102421
      -2      -1       4        0.000000        4.605432        0.106543
      -2      -1       4        0.000000        4.690416        0.100209
       2       1      -4        0.000000        4.677606        0.095031
      -2       1       4        0.000000        4.739198        0.124006
      -2       1       4        0.000000        4.648656        0.100030
       2       1      -4        0.000000        4.657252        0.099841
       2       1      -4        0.000000        4.871345        0.100601
      -2       1       4        0.000000        4.687217        0.102459
      -1      -1       4        0.000000        4.879549        0.097290
      -1      -1       4        0.000000        4.905099        0.099894
       1      -1      -4        0.000000        4.846648        0.096911
       1      -1      -4        0.000000        4.574932        0.117354
      -1      -1       4        0.000000        4.914265        0.095551
       1      -1      -4        0.000000        4.847680        0.096890
      -1      -1       4        0.000000        4.932545        0.099327
       1      -1      -4        0.000000        4.768648        0.099601
       1       1      -4        0.000000        4.918333        0.096508
       1       1      -4        0.000000        4.450843        0.117253
      -1       1       4        0.000000        4.917316        0.110030
      -1       1       4        0.000000        4.791659        0.099112
       1       1      -4        0.000000        4.844585        0.104331
      -1       1       4        0.000000        4.861070        0.096618
       0      -1       4        0.000000        6.403124        0.126979
       0      -1      -4        0.000000        6.169279        0.128583
       0      -1       4        0.000000        6.079474        0.128843
       0      -1      -4        0.000000        6.349016        0.122460
       0       1       4        0.000000        6.157922        0.124680
       0       1      -4        0.000000        6.163603        0.127048
       0       1       4        0.000000        6.239391        0.125472
       0       1      -4        0.000000        6.226556        0.130656
       0       1       4        0.000000        6.253799        0.127625
      -1      -1      -4        0.000000       10.278132        0.209369
       1      -1       4        0.000000       10.468524        0.205971
       1      -1       4        0.000000       10.454186        0.206259
      -1      -1      -4        0.000000       10.366292        0.208044
      -1      -1      -4        0.000000       10.511422        0.205599
      -1      -1      -4        0.000000       10.555094        0.208113
       1      -1       4        0.000000       10.404807        0.207748
       1       1       4        0.000000       10.291258        0.210088
       1       1       4        0.000000       10.540873        0.205013
       1       1       4        0.000000       10.535179        0.204642
      -1       1      -4        0.000000       10.386530        0.207630
      -1       1      -4        0.000000       10.366774        0.208034
      -1       1      -4        0.000000       10.436475        0.210527
       1       1       4        0.000000       10.281051        0.210797
      -2      -1      -4        0.000000        4.250882        0.096367
      -2      -1      -4        0.000000        4.052160        0.101211
       2      -1       4        0.000000        3.991240        0.106655
       2      -1       4        0.000000        4.263801        0.091272
      -2      -1      -4        0.000000        4.346263        0.114242
      -2       1      -4        0.000000        4.219005        0.093474
      -2       1      -4        0.000000        4.274342        0.116217
       2       1       4        0.000000        4.318565        0.090090
      -2       1      -4        0.000000        4.190465        0.095346
       3      -1       4        0.000000        0.905539        0.163919
      -3      -1      -4        0.000000        1.024695        0.263118
      -3      -1      -4        0.000000        0.781025        0.132951
       3      -1       4        0.000000        1.039230        0.080064
      -3      -1      -4        0.000000        0.943398        0.100783
      -3       1      -4        0.000000        0.655744        0.655744
      -3       1      -4        0.000000        1.014889        0.092935
      -3       1      -4        0.000000        0.994987        0.100560
       4      -1       4        0.000000        0.692820        0.173205
      -4      -1      -4        0.000000        0.761577        0.213855
      -4      -1      -4        0.000000        0.685565        0.685565
      -4      -1      -4        0.000000        0.836660        0.165840
      -4       1      -4        0.000000        0.728011        0.218109
      -4       1      -4        0.000000        0.812404        0.172091
      -4       1      -4        0.000000        0.754983        0.754983
      -5      -1      -4        0.000000        0.282843        0.387978
      -5      -1      -4        0.000000        0.700000        0.400000
      -5      -1      -4        0.000000        0.331662        0.702746
      -5       1      -4        0.000000        0.818535        0.280019
      -5      -2       4        0.000000        2.054264        0.154264
      -5      -2       4        0.000000        1.682260        0.243511
      -5       2       4        0.000000        1.618641        0.159189
      -5       2       4        0.000000        1.933908        0.359106
      -3      -2       4        0.000000        0.692820        0.118364
       3      -2      -4        0.000000        0.538516        0.058933
      -3      -2       4        0.000000        0.600000        0.212702
      -3       2       4        0.000000        0.624500        0.155458
       3       2      -4        0.000000        0.748331        0.100257
       3       2      -4        0.000000        0.761577        0.261577
      -3       2       4        0.000000        0.824621        0.412311
      -2      -2       4        0.000000        1.244990        0.087406
       2      -2      -4        0.000000        1.166190        0.066190
      -2      -2       4        0.000000        1.204159        0.068378
       2      -2      -4        0.000000        1.212436        0.054852
      -2      -2       4        0.000000        1.240967        0.066233
       2       2      -4        0.000000        1.469694        0.105876
       2       2      -4        0.000000        1.224745        0.071489
      -2       2       4        0.000000        1.148913        0.071880
      -2       2       4        0.000000        1.280625        0.055880
       1      -2      -4        0.000000        1.178983        0.097317
      -1      -2       4        0.000000        0.994987        0.062250
       1      -2      -4        0.000000        1.126943        0.049910
      -1      -2       4        0.000000        1.113553        0.059987
      -1      -2       4        0.000000        1.216553        0.094055
       1       2      -4        0.000000        1.212436        0.098883
      -1       2       4        0.000000        1.072381        0.037972
      -1       2       4        0.000000        1.100000        0.055969
       1       2      -4        0.000000        1.072381        0.057491
      -1       2       4        0.000000        1.095445        0.110559
       0      -2      -4        0.000000        5.882176        0.114161
       0      -2      -4        0.000000        5.802586        0.120157
       0      -2       4        0.000000        5.828379        0.119614
       0       2      -4        0.000000        5.430470        0.146532
       0       2      -4        0.000000        5.959027        0.116938
       0       2       4        0.000000        5.907622        0.114523
       0       2       4        0.000000        5.831809        0.119542
      -1      -2      -4        0.000000        8.382720        0.177844
      -1      -2      -4        0.000000        8.443341        0.165056
      -1      -2      -4        0.000000        8.453993        0.165447
      -1      -2      -4        0.000000        8.456359        0.164194
       1      -2       4        0.000000        8.466404        0.164597
       1      -2       4        0.000000        7.896835        0.187749
       1       2       4        0.000000        8.212795        0.169786
       1       2       4        0.000000        8.337865        0.167186
      -1       2      -4        0.000000        8.254696        0.168287
       1       2       4        0.000000        8.157818        0.170328
      -2      -2      -4        0.000000        0.200000        0.200000
      -2      -2      -4        0.000000        0.374166        0.200961
       2      -2       4        0.000000        0.346410        0.173205
      -2       2      -4        0.000000        0.387298        0.163692
       3      -2       4        0.000000        0.000000        0.692820
       3      -2       4        0.000000        0.300000        0.300000
      -3      -2      -4        0.000000        0.331662        0.331662
      -4      -2      -4        0.000000        5.954830        0.140193
      -4      -2      -4        0.000000        6.239391        0.162385
      -4      -2      -4        0.000000        5.894913        0.144261
      -4       2      -4        0.000000        6.044833        0.136364
      -5      -2      -4        0.000000        0.447214        0.447214
      -5      -2      -4        0.000000        0.707107        0.507107
      -5      -3       4        0.000000        1.053565        0.266165
      -5      -3       4        0.000000        0.768115        0.436452
      -5       3       4        0.000000        0.624500        0.624500
      -4      -3       4        0.000000        0.547723        0.547723
      -4      -3       4        0.000000        0.300000        0.300000
      -3      -3       4        0.000000        0.556776        0.225114
      -3      -3       4        0.000000        0.500000        0.200000
       3      -3      -4        0.000000        0.538516        0.138516
      -3       3       4        0.000000        0.100000        0.274166
      -3       3       4        0.000000        0.244949        0.529648
      -2      -3       4        0.000000        4.364631        0.093799
      -2      -3       4        0.000000        4.297674        0.102438
      -2      -3       4        0.000000        4.513314        0.097433
      -2      -3       4        0.000000        4.249706        0.095190
       2      -3      -4        0.000000        4.237924        0.091842
       2      -3      -4        0.000000        4.343961        0.091903
       2       3      -4        0.000000        3.872983        0.150081
      -2       3       4        0.000000        4.247352        0.094040
      -2       3       4        0.000000        3.801316        0.148919
      -2       3       4        0.000000        4.357752        0.088091
       1      -3      -4        0.000000        1.972308        0.064430
      -1      -3       4        0.000000        2.046949        0.064526
       1      -3      -4        0.000000        2.000000        0.084276
      -1      -3       4        0.000000        1.989975        0.063839
      -1      -3       4        0.000000        2.126029        0.108605
       1       3      -4        0.000000        1.931321        0.148065
      -1       3       4        0.000000        1.918333        0.066307
       0      -3      -4        0.000000        1.552417        0.045766
       0      -3       4        0.000000        1.673320        0.057771
       0      -3      -4        0.000000        1.549193        0.065954
       0       3      -4        0.000000        1.539480        0.150236
       0       3       4        0.000000        1.618641        0.056591
       0       3       4        0.000000        1.618641        0.043840
      -1      -3      -4        0.000000        2.271563        0.064756
      -1      -3      -4        0.000000        2.282542        0.071208
      -1      -3      -4        0.000000        2.422808        0.155651
      -1      -3      -4        0.000000        2.332381        0.078495
       1      -3       4        0.000000        2.338803        0.067240
      -1      -3      -4        0.000000        2.319483        0.065597
      -2      -3      -4        0.000000        0.489898        0.316693
      -2      -3      -4        0.000000        0.360555        0.187350
       2      -3       4        0.000000        0.244949        0.244949
      -2      -3      -4        0.000000        0.200000        0.200000
      -2       3      -4        0.000000        0.244949        0.274666
      -3      -3      -4        0.000000        6.294442        0.143019
      -3      -3      -4        0.000000        6.416385        0.143427
       3      -3       4        0.000000        6.532228        0.134572
      -4      -3      -4        0.000000        0.836660        0.245052
      -5      -3      -4        0.000000        1.743560        0.162421
      -5      -3      -4        0.000000        1.445683        0.216863
      -5      -4       4        0.000000        1.345362        0.236309
      -5      -4       4        0.000000        0.948683        0.448683
      -5       4       4        0.000000        0.989949        0.989949
      -4      -4       4        0.000000        0.360555        0.360555
      -3      -4       4        0.000000        3.269557        0.102539
       3      -4      -4        0.000000        3.000000        0.086240
      -3      -4       4        0.000000        3.101612        0.096617
       3       4      -4        0.000000        3.163858        0.207509
       2      -4      -4        0.000000        1.208305        0.059392
      -2      -4       4        0.000000        1.166190        0.103176
      -2      -4       4        0.000000        1.140175        0.081875
      -2      -4       4        0.000000        1.135782        0.091751
       2      -4      -4        0.000000        1.034408        0.091010
       2       4      -4        0.000000        0.806226        0.506226
      -2       4       4        0.000000        0.781025        0.311983
      -1      -4       4        0.000000        5.739338        0.125961
       1      -4      -4        0.000000        5.835238        0.124721
       1       4      -4        0.000000        5.768015        0.170694
      -1       4       4        0.000000        5.950630        0.135134
       0      -4      -4        0.000000        2.102380        0.052989
       0      -4      -4        0.000000        2.009975        0.070903
       0       4       4        0.000000        2.071232        0.068733
      -1      -4      -4        0.000000        5.467175        0.130509
       1      -4       4        0.000000        5.603570        0.119958
      -1      -4      -4        0.000000        5.657738        0.119688
      -1      -4      -4        0.000000        5.645352        0.116338
       1       4       4        0.000000        5.413871        0.120479
      -2      -4      -4        0.000000        5.873670        0.136075
      -2      -4      -4        0.000000        6.145730        0.133243
      -2      -4      -4        0.000000        6.473793        0.140548
      -2      -4      -4        0.000000        6.118823        0.132172
       2      -4       4        0.000000        6.082763        0.132132
      -2       4      -4        0.000000        6.021628        0.153067
      -3      -4      -4        0.000000        0.707107        0.177957
       3      -4       4        0.000000        0.700000        0.152277
      -3      -4      -4        0.000000        1.268858        0.124305
      -3       4      -4        0.000000        0.818535        0.382645
      -4      -4      -4        0.000000        0.984886        0.210289
      -4      -4      -4        0.000000        1.034408        0.371083
      -4       4      -4        0.000000        0.774597        0.774597
      -5      -4      -4        0.000000        1.122497        0.279882
      -5      -4      -4        0.000000        1.606238        0.199113
      -5      -5       4        0.000000        1.256981        0.318897
      -4      -5       4        0.000000        3.292416        0.134885
      -4      -5       4        0.000000        3.290897        0.125458
      -3      -5       4        0.000000        1.086278        0.158916
      -3      -5       4        0.000000        1.009950        0.138171
       3      -5      -4        0.000000        0.900000        0.145017
       3       5      -4        0.000000        0.509902        0.634650
      -2      -5       4        0.000000        4.136424        0.102815
      -2      -5       4        0.000000        4.178516        0.107890
       2      -5      -4        0.000000        4.047221        0.101337
      -2      -5       4        0.000000        4.098780        0.097531
      -1      -5       4        0.000000        0.458258        0.258258
       1      -5      -4        0.000000        0.346410        0.346410
      -1      -5       4        0.000000        0.538516        0.164351
      -1       5       4        0.000000        0.830662        0.182588
       0      -5      -4        0.000000        1.884144        0.081369
       0      -5       4        0.000000        2.022375        0.075583
       0      -5      -4        0.000000        1.857418        0.060197
       0      -5       4        0.000000        1.846619        0.066169
       0       5       4        0.000000        2.014944        0.081036
      -1      -5      -4        0.000000        7.408779        0.152747
      -1      -5      -4        0.000000        7.328028        0.164928
       1      -5       4        0.000000        7.400676        0.156368
      -1      -5      -4        0.000000        7.414850        0.156062
      -2      -5      -4        0.000000        4.273172        0.101841
       2      -5       4        0.000000        4.052160        0.103743
      -2      -5      -4        0.000000        4.064480        0.108472
      -2      -5      -4        0.000000        4.171331        0.100704
      -2       5      -4        0.000000        4.052160        0.131701
       3      -5       4        0.000000        0.424264        0.424264
      -3      -5      -4        0.000000        0.616441        0.284779
      -3      -5      -4        0.000000        0.734847        0.196330
      -3       5      -4        0.000000        0.223607        0.524725
      -4      -5      -4        0.000000        1.944222        0.135908
      -4      -5      -4        0.000000        1.951922        0.143608
      -4      -6       4        0.000000        2.049390        0.162594
      -4      -6       4        0.000000        1.939072        0.147425
      -3      -6       4        0.000000        3.831449        0.111234
       3      -6      -4        0.000000        3.988734        0.109301
      -3      -6       4        0.000000        3.839271        0.117712
      -3      -6       4        0.000000        3.988734        0.123505
      -2      -6       4        0.000000        0.200000        0.338516
       2      -6      -4        0.000000        0.655744        0.165846
      -2      -6       4        0.000000        0.806226        0.189784
      -2      -6       4        0.000000        0.700000        0.143224
       1      -6      -4        0.000000        1.700000        0.103128
      -1      -6       4        0.000000        1.766352        0.096023
      -1      -6       4        0.000000        1.769181        0.098851
      -1       6       4        0.000000        1.734935        0.153796
       0      -6       4        0.000000        8.134494        0.172711
       0      -6      -4        0.000000        8.200610        0.171911
       0      -6      -4        0.000000        8.133880        0.163936
       0      -6       4        0.000000        8.094443        0.167905
       0       6       4        0.000000        8.212795        0.171651
      -1      -6      -4        0.000000        1.048809        0.126854
      -1      -6      -4        0.000000        1.135782        0.155986
       1      -6       4        0.000000        1.104536        0.119650
      -1      -6      -4        0.000000        1.109054        0.119104
      -1       6      -4        0.000000        1.272792        0.163739
      -2      -6      -4        0.000000        0.200000        0.338516
       2      -6       4        0.000000        0.948683        0.142458
      -2      -6      -4        0.000000        0.616441        0.192177
      -2      -6      -4        0.000000        0.591608        0.308765
      -2       6      -4        0.000000        0.860233        0.285776
      -3      -6      -4        0.000000        3.601389        0.109971
      -3      -6      -4        0.000000        3.408812        0.113361
       3      -6       4        0.000000        3.580503        0.109192
      -3       6      -4        0.000000        3.411744        0.180646
      -4      -6      -4        0.000000        0.818535        0.406225
      -4      -6      -4        0.000000        1.240967        0.231017
      -4      -7       4        0.000000        1.352775        0.261904
      -4      -7       4        0.000000        1.519868        0.219868
      -3      -7       4        0.000000        1.714643        0.159008
      -3      -7       4        0.000000        1.360147        0.185413
       3      -7      -4        0.000000        1.833030        0.124230
      -3      -7       4        0.000000        1.846619        0.143680
      -2      -7       4        0.000000        1.345362        0.153725
      -2      -7       4        0.000000        1.371131        0.110179
       2      -7      -4        0.000000        1.315295        0.149104
      -2      -7       4        0.000000        1.256981        0.166109
      -1      -7       4        0.000000        7.698052        0.166784
       1      -7      -4        0.000000        7.790379        0.164764
      -1      -7       4        0.000000        7.728519        0.162806
      -1       7       4        0.000000        7.470609        0.182948
       0      -7       4        0.000000        0.400000        0.400000
       0       7       4        0.000000        0.000000        0.529150
       1      -7       4        0.000000        0.754983        0.198207
       1      -7       4        0.000000        0.916515        0.104111
      -1      -7      -4        0.000000        0.648074        0.189817
      -1      -7      -4        0.000000        0.911043        0.169424
      -1      -7      -4        0.000000        0.812404        0.273887
      -1       7      -4        0.000000        0.894427        0.311332
       1       7       4        0.000000        0.900000        0.165153
       2      -7       4        0.000000        1.048809        0.159989
      -2      -7      -4        0.000000        0.900000        0.185857
      -2      -7      -4        0.000000        0.979796        0.211681
      -2      -7      -4        0.000000        1.095445        0.125909
      -2       7      -4        0.000000        1.256981        0.242091
      -3      -7      -4        0.000000        0.761577        0.349267
       3      -7       4        0.000000        0.387298        0.387298
      -3       7      -4        0.000000        0.905539        0.640963
      -4      -7      -4        0.000000        1.178983        0.336368
      -4      -7      -4        0.000000        1.191638        0.275122
      -4      -8       4        0.000000        0.640312        0.640312
      -3      -8       4        0.000000        2.901724        0.164937
      -3      -8       4        0.000000        2.725803        0.131578
      -3      -8       4        0.000000        2.431049        0.155088
       3      -8      -4        0.000000        2.685144        0.173173
       2      -8      -4        0.000000        6.578754        0.155359
      -2      -8       4        0.000000        6.688049        0.153525
      -2      -8       4        0.000000        6.551336        0.149773
      -1      -8       4        0.000000        0.905539        0.212718
      -1      -8       4        0.000000        0.734847        0.265805
       1      -8      -4        0.000000        1.284523        0.153152
      -1       8       4        0.000000        1.469694        0.240873
       0      -8      -4        0.000000        0.781025        0.224249
       0      -8       4        0.000000        0.824621        0.200121
       0      -8       4        0.000000        0.700000        0.476393
      -1      -8      -4        0.000000        1.004988        0.150587
       1      -8       4        0.000000        0.424264        0.424264
      -1      -8      -4        0.000000        0.734847        0.403184
      -1      -8      -4        0.000000        0.223607        0.483500
      -1       8      -4        0.000000        0.734847        0.561642
      -2      -8      -4        0.000000        0.959166        0.178141
       2      -8       4        0.000000        0.836660        0.298144
      -2      -8      -4        0.000000        0.989949        0.208925
      -2       8      -4        0.000000        0.655744        0.655744
       3      -8       4        0.000000        0.469042        0.469042
      -3      -8      -4        0.000000        1.000000        0.285857
      -3       8      -4        0.000000        1.039230        1.039230
      -3      -9       4        0.000000        3.929377        0.165070
      -3      -9       4        0.000000        3.820995        0.138604
      -2      -9       4        0.000000        0.943398        0.386622
       1      -9      -4        0.000000        0.519615        0.519615
      -1      -9       4        0.000000        0.848528        0.319378
       0      -9       4        0.000000        1.536229        0.165098
       0      -9      -4        0.000000        1.577973        0.167300
       0       9      -4        0.000000        1.752142        0.206179
      -1      -9      -4        0.000000        0.979796        0.363354
      -1      -9      -4        0.000000        0.655744        0.655744
       1      -9       4        0.000000        0.824621        0.314719
      -1       9      -4        0.000000        1.268858        0.320174
       2      -9       4        0.000000        1.717556        0.178076
      -2      -9      -4        0.000000        1.846619        0.140746
      -2      -9      -4        0.000000        1.786057        0.195460
      -2       9      -4        0.000000        1.786057        0.330035
      -3      -9      -4        0.000000        0.387298        0.461230
       3      -9       4        0.000000        0.800000        0.576393
      -2     -10       4        0.000000        0.781025        0.781025
      -2     -10       4        0.000000        0.994987        0.260141
      -2     -10       4        0.000000        0.663325        0.663325
      -1     -10       4        0.000000        1.090871        0.303470
       1     -10      -4        0.000000        0.583095        0.583095
       0     -10       4        0.000000        0.655744        0.655744
       0     -10      -4        0.000000        1.077033        0.308918
      -1     -10      -4        0.000000        2.224860        0.170596
       1     -10       4        0.000000        2.009975        0.171497
      -1     -10      -4        0.000000        1.902630        0.241305
       2     -10       4        0.000000        0.173205        0.607820
      -2     -10      -4        0.000000        0.458258        0.458258
      -5       0       5        0.000000        4.752894        0.124719
      -5       0       5        0.000000        4.666905        0.135900
      -4       0       5        0.000000        0.608276        0.208276
       3       0      -5        0.000000        1.421267        0.087101
      -3       0       5        0.000000        1.509967        0.092222
      -2       0       5        0.000000        0.200000        0.200000
       2       0      -5        0.000000        0.244949        0.244949
      -1       0       5        0.000000        2.338803        0.056261
       1       0      -5        0.000000        2.295648        0.059580
       1       0      -5        0.000000        2.227106        0.080015
      -1       0       5        0.000000        2.249444        0.049444
      -1       0       5        0.000000        2.236068        0.049747
      -1       0       5        0.000000        2.264950        0.055878
       1       0      -5        0.000000        2.271563        0.048952
       0       0      -5        0.000000        0.223607        0.050402
       0       0       5        0.000000        0.173205        0.173205
       0       0       5        0.000000        0.200000        0.058579
       0       0      -5        0.000000        0.282843        0.141421
       1       0       5        0.000000       12.061924        0.235259
      -1       0      -5        0.000000       11.897899        0.240712
       1       0       5        0.000000       12.077251        0.234954
       1       0       5        0.000000       12.152366        0.233893
      -1       0      -5        0.000000       11.717082        0.241891
      -1       0      -5        0.000000       11.886547        0.238800
       2       0       5        0.000000        0.173205        0.187350
      -2       0      -5        0.000000        0.100000        0.200000
      -2       0      -5        0.000000        0.282843        0.282843
      -3       0      -5        0.000000        5.173007        0.117317
      -3       0      -5        0.000000        5.182663        0.116106
       3       0       5        0.000000        5.207687        0.107687
       3       0       5        0.000000        5.055690        0.113019
      -3       0      -5        0.000000        5.101960        0.155244
      -4       0      -5        0.000000        0.748331        0.748331
      -5       0      -5        0.000000        2.891366        0.132744
      -5       0      -5        0.000000        3.310589        0.126252
      -5      -1       5        0.000000        0.685565        0.420990
      -5      -1       5        0.000000        1.200000        0.240834
      -5       1       5        0.000000        1.072381        0.899175
      -4      -1       5        0.000000        3.085450        0.097139
      -4      -1       5        0.000000        3.232646        0.113351
      -4       1       5        0.000000        3.148015        0.091874
      -4       1       5        0.000000        3.114482        0.107823
      -4       1       5        0.000000        3.414674        0.174304
       3      -1      -5        0.000000        3.252691        0.077790
      -3      -1       5        0.000000        3.108054        0.094750
       3       1      -5        0.000000        3.154362        0.094950
      -3       1       5        0.000000        3.204684        0.082185
      -3       1       5        0.000000        3.096773        0.091777
      -2      -1       5        0.000000        0.346410        0.204989
      -2      -1       5        0.000000        0.223607        0.223607
      -2       1       5        0.000000        0.282843        0.141421
      -2       1       5        0.000000        0.547723        0.264880
       2       1      -5        0.000000        0.000000        0.223607
      -1      -1       5        0.000000        4.583667        0.103711
       1      -1      -5        0.000000        4.562894        0.116547
      -1      -1       5        0.000000        4.663690        0.098605
       1      -1      -5        0.000000        4.800000        0.095747
      -1      -1       5        0.000000        4.809366        0.099801
      -1      -1       5        0.000000        4.680812        0.097145
       1      -1      -5        0.000000        4.785394        0.101379
       1       1      -5        0.000000        4.919350        0.094414
      -1       1       5        0.000000        4.865182        0.094438
      -1       1       5        0.000000        4.772840        0.097372
      -1       1       5        0.000000        4.790616        0.109804
       1       1      -5        0.000000        4.806246        0.104119
       0      -1      -5        0.000000        7.505331        0.151421
       0      -1       5        0.000000        7.381734        0.149860
       0      -1       5        0.000000        7.760155        0.148979
       0      -1       5        0.000000        7.386474        0.151835
       0       1      -5        0.000000        7.354590        0.156674
       0       1       5        0.000000        7.569016        0.150795
       0       1      -5        0.000000        7.382412        0.151229
      -1      -1      -5        0.000000        4.598913        0.096691
       1      -1       5        0.000000        4.632494        0.094873
       1      -1       5        0.000000        4.775982        0.099444
      -1      -1      -5        0.000000        4.529901        0.097069
       1      -1       5        0.000000        4.494441        0.097851
       1      -1       5        0.000000        4.573839        0.097233
      -1      -1      -5        0.000000        4.420407        0.099528
       1       1       5        0.000000        4.627094        0.094986
       1       1       5        0.000000        4.576024        0.098302
      -1       1      -5        0.000000        4.585848        0.096973
      -1       1      -5        0.000000        4.440721        0.099062
       1       1       5        0.000000        4.626013        0.097217
       2      -1       5        0.000000        7.625615        0.153667
      -2      -1      -5        0.000000        7.489326        0.168807
      -2       1      -5        0.000000        7.573638        0.168235
      -2       1      -5        0.000000        7.529940        0.155661
       2       1       5        0.000000        7.655717        0.152384
      -3      -1      -5        0.000000        5.016971        0.121055
       3      -1       5        0.000000        5.248809        0.111690
       3      -1       5        0.000000        5.176872        0.111302
      -3      -1      -5        0.000000        5.122499        0.119500
      -3       1      -5        0.000000        5.130302        0.116322
      -3       1      -5        0.000000        5.183628        0.116084
       3       1       5        0.000000        5.138093        0.113155
       4      -1       5        0.000000        3.078961        0.093999
      -4      -1      -5        0.000000        3.075711        0.104180
      -4      -1      -5        0.000000        3.111270        0.183814
      -4      -1      -5        0.000000        3.181195        0.103858
      -4       1      -5        0.000000        3.085450        0.098813
       4       1       5        0.000000        3.114482        0.092893
      -4       1      -5        0.000000        3.212476        0.099599
      -5      -1      -5        0.000000        4.237924        0.204315
      -5      -1      -5        0.000000        4.853864        0.125228
      -5      -1      -5        0.000000        4.634652        0.129100
      -5       1      -5        0.000000        3.942081        0.236679
      -5       1      -5        0.000000        4.811445        0.121029
      -5      -2       5        0.000000        0.932738        0.308238
      -5      -2       5        0.000000        1.571623        0.175199
      -5       2       5        0.000000        1.723369        0.352238
      -5       2       5        0.000000        1.459452        0.171042
      -4      -2       5        0.000000        2.114237        0.119244
      -4      -2       5        0.000000        2.102380        0.112405
      -4       2       5        0.000000        2.109502        0.109502
      -4       2       5        0.000000        2.412468        0.219296
      -3      -2       5        0.000000        2.273763        0.078314
      -3      -2       5        0.000000        2.340940        0.098174
       3       2      -5        0.000000        2.293469        0.125521
      -3       2       5        0.000000        2.258318        0.085762
      -3       2       5        0.000000        2.209072        0.159682
       3       2      -5        0.000000        2.238303        0.065747
       2      -2      -5        0.000000        4.957822        0.107049
      -2      -2       5        0.000000        5.151699        0.099966
      -2      -2       5        0.000000        5.002000        0.106083
      -2      -2       5        0.000000        5.021952        0.112777
      -2      -2       5        0.000000        4.969909        0.107811
       2      -2      -5        0.000000        4.968903        0.103721
      -2       2       5        0.000000        5.080354        0.105417
      -2       2       5        0.000000        5.063596        0.101741
       2       2      -5        0.000000        4.894895        0.107412
       2       2      -5        0.000000        5.054701        0.118103
      -1      -2       5        0.000000        3.620773        0.080999
       1      -2      -5        0.000000        3.545420        0.081318
      -1      -2       5        0.000000        3.760319        0.091532
      -1      -2       5        0.000000        3.558089        0.083899
       1      -2      -5        0.000000        3.532704        0.094682
       1       2      -5        0.000000        3.629049        0.079402
      -1       2       5        0.000000        3.786819        0.096291
       1       2      -5        0.000000        3.691883        0.094662
      -1       2       5        0.000000        3.563706        0.080891
      -1       2       5        0.000000        3.609709        0.075590
       0      -2       5        0.000000        1.456022        0.056022
       0      -2       5        0.000000        1.469694        0.094921
       0      -2      -5        0.000000        1.483240        0.054954
       0      -2      -5        0.000000        1.496663        0.064881
       0       2      -5        0.000000        1.349074        0.116191
       0       2       5        0.000000        1.526434        0.046569
       0       2      -5        0.000000        1.509967        0.057383
       0       2       5        0.000000        1.469694        0.041408
       0       2       5        0.000000        1.509967        0.057383
       1      -2       5        0.000000        4.542026        0.134079
      -1      -2      -5        0.000000        4.971921        0.103657
      -1      -2      -5        0.000000        5.058656        0.104870
      -1      -2      -5        0.000000        4.958831        0.104966
       1      -2       5        0.000000        5.052722        0.103985
       1       2       5        0.000000        5.045790        0.110205
       1       2       5        0.000000        5.016971        0.101689
      -1       2      -5        0.000000        4.925444        0.105693
       1       2       5        0.000000        4.926459        0.105671
      -2      -2      -5        0.000000        3.837968        0.092304
       2      -2       5        0.000000        3.594440        0.128895
      -2      -2      -5        0.000000        3.987480        0.091328
       2      -2       5        0.000000        3.870400        0.088866
       2       2       5        0.000000        3.745664        0.100119
      -2       2      -5        0.000000        3.948417        0.113056
      -2       2      -5        0.000000        3.850974        0.089325
       2       2       5        0.000000        3.875564        0.104623
      -3      -2      -5        0.000000        3.062679        0.092830
      -3      -2      -5        0.000000        3.148015        0.096786
       3      -2       5        0.000000        2.696294        0.164496
      -3      -2      -5        0.000000        3.343651        0.121850
       3      -2       5        0.000000        3.093542        0.091875
      -3       2      -5        0.000000        3.151190        0.086880
      -4      -2      -5        0.000000        2.733130        0.104442
      -4      -2      -5        0.000000        2.567100        0.121696
       4      -2       5        0.000000        2.509980        0.101661
      -4       2      -5        0.000000        2.570992        0.103199
      -5      -2      -5        0.000000        1.086278        0.243663
      -5      -2      -5        0.000000        0.943398        0.287654
      -5       2      -5        0.000000        1.337909        0.596289
      -5      -3       5        0.000000        1.228821        0.254141
      -5       3       5        0.000000        1.081665        1.081665
      -4      -3       5        0.000000        0.824621        0.241526
      -4      -3       5        0.000000        0.663325        0.302770
      -4       3       5        0.000000        0.741620        0.193897
      -3      -3       5        0.000000        2.262742        0.101723
       3      -3      -5        0.000000        2.220360        0.066294
      -3      -3       5        0.000000        2.317326        0.085735
       3       3      -5        0.000000        2.027313        0.183405
      -3       3       5        0.000000        2.286919        0.075585
      -3       3       5        0.000000        2.229350        0.182401
      -2      -3       5        0.000000        1.417745        0.102450
      -2      -3       5        0.000000        1.509967        0.088700
      -2      -3       5        0.000000        1.403567        0.076917
       2      -3      -5        0.000000        1.476482        0.062269
      -2      -3       5        0.000000        1.476482        0.065809
       2      -3      -5        0.000000        1.400000        0.062091
       2       3      -5        0.000000        1.288410        0.183874
      -2       3       5        0.000000        1.385641        0.169088
      -2       3       5        0.000000        1.378405        0.078405
      -2       3       5        0.000000        1.421267        0.053788
      -1      -3       5        0.000000        0.509902        0.509902
       1      -3      -5        0.000000        0.435890        0.294469
      -1      -3       5        0.000000        0.173205        0.173205
       0      -3      -5        0.000000        3.221801        0.070610
       0      -3       5        0.000000        3.244996        0.079558
       0      -3      -5        0.000000        3.271085        0.080474
       0       3       5        0.000000        3.243455        0.070129
       0       3       5        0.000000        3.458323        0.074538
       0       3      -5        0.000000        3.140064        0.130080
      -1      -3      -5        0.000000        5.070503        0.114698
      -1      -3      -5        0.000000        5.065570        0.108757
       1      -3       5        0.000000        5.058656        0.111940
      -1      -3      -5        0.000000        5.147815        0.107974
      -1      -3      -5        0.000000        5.173007        0.150060
      -2      -3      -5        0.000000        0.000000        0.282843
      -2      -3      -5        0.000000        0.754983        0.189298
      -2      -3      -5        0.000000        0.412311        0.212311
      -2      -3      -5        0.000000        0.264575        0.264575
       2      -3       5        0.000000        0.100000        0.246410
      -2       3      -5        0.000000        0.519615        0.296008
       2       3       5        0.000000        0.412311        0.412311
      -3      -3      -5        0.000000        5.160426        0.121577
      -3      -3      -5        0.000000        5.278257        0.121708
       3      -3       5        0.000000        5.231635        0.114995
      -3       3      -5        0.000000        5.025933        0.159723
      -4      -3      -5        0.000000        1.029563        0.169330
       4      -3       5        0.000000        1.034408        0.139981
      -5      -3      -5        0.000000        0.714143        0.714143
      -5      -3      -5        0.000000        0.866025        0.336875
      -5       3      -5        0.000000        0.836660        0.836660
      -5      -4       5        0.000000        0.100000        0.641620
      -5       4       5        0.000000        1.536229        0.516425
      -4      -4       5        0.000000        0.812404        0.283254
      -4       4       5        0.000000        0.519615        0.543399
       4       4      -5        0.000000        1.063015        1.063015
      -3      -4       5        0.000000        0.953939        0.123277
      -3      -4       5        0.000000        1.058301        0.147257
       3      -4      -5        0.000000        0.994987        0.106168
      -3       4       5        0.000000        0.556776        0.556776
       3       4      -5        0.000000        0.921954        0.677005
      -2      -4       5        0.000000        1.519868        0.070731
       2      -4      -5        0.000000        1.489966        0.082842
      -2      -4       5        0.000000        1.536229        0.087091
      -2      -4       5        0.000000        1.513275        0.099061
       2       4      -5        0.000000        1.249000        0.269204
      -2       4       5        0.000000        0.959166        0.273601
      -1      -4       5        0.000000        1.737815        0.079502
       1      -4      -5        0.000000        1.737815        0.073483
       1       4      -5        0.000000        1.600000        0.207161
       0      -4      -5        0.000000        4.727579        0.099404
       0       4       5        0.000000        4.829079        0.105732
      -1      -4      -5        0.000000        0.774597        0.089031
      -1      -4      -5        0.000000        0.748331        0.100257
      -1      -4      -5        0.000000        0.741620        0.133344
       1      -4       5        0.000000        0.806226        0.092083
      -2      -4      -5        0.000000        6.284903        0.135106
       2      -4       5        0.000000        6.278535        0.135246
      -2      -4      -5        0.000000        6.344289        0.136229
      -2      -4      -5        0.000000        6.215304        0.136653
       2       4       5        0.000000        6.359245        0.137509
      -2       4      -5        0.000000        6.279331        0.153974
      -3      -4      -5        0.000000        3.031501        0.098926
       3      -4       5        0.000000        3.098387        0.090065
      -3      -4      -5        0.000000        3.140064        0.100327
      -3       4      -5        0.000000        2.819574        0.160627
      -4      -4      -5        0.000000        1.157584        0.182904
      -4      -4      -5        0.000000        1.714643        0.146204
      -4       4      -5        0.000000        0.608276        0.608276
      -5      -4      -5        0.000000        0.984886        0.329142
      -5      -4      -5        0.000000        1.385641        0.223746
      -5       4      -5        0.000000        0.574456        0.694401
      -5      -5       5        0.000000        0.921954        0.421954
      -5       5       5        0.000000        0.787401        0.787401
      -4      -5       5        0.000000        1.667333        0.131104
      -4      -5       5        0.000000        1.536229        0.176082
      -4       5       5        0.000000        1.014889        1.014889
      -3      -5       5        0.000000        1.949359        0.119058
      -3      -5       5        0.000000        2.004994        0.118198
      -3      -5       5        0.000000        1.964688        0.101895
       3      -5      -5        0.000000        2.019901        0.098964
       3       5      -5        0.000000        1.469694        0.464706
      -2      -5       5        0.000000        1.729162        0.095148
       2      -5      -5        0.000000        1.777639        0.092409
      -2      -5       5        0.000000        1.754993        0.081673
      -2      -5       5        0.000000        1.783255        0.103970
       2       5      -5        0.000000        1.228821        0.404199
      -1      -5       5        0.000000        2.100000        0.082576
      -1      -5       5        0.000000        2.042058        0.085019
       1      -5      -5        0.000000        2.088061        0.083068
       1       5      -5        0.000000        1.466288        0.270462
      -1       5       5        0.000000        2.343075        0.113725
       0      -5       5        0.000000        4.097560        0.100061
       0      -5      -5        0.000000        4.054627        0.087260
       0      -5      -5        0.000000        4.091455        0.101467
       0       5       5        0.000000        4.097560        0.100061
      -1      -5      -5        0.000000        6.097540        0.137675
      -1      -5      -5        0.000000        6.242596        0.142596
      -1      -5      -5        0.000000        6.218521        0.130828
       1      -5       5        0.000000        6.204031        0.135258
      -2      -5      -5        0.000000        3.016621        0.090873
      -2      -5      -5        0.000000        3.006659        0.096333
      -2      -5      -5        0.000000        2.983287        0.098846
       2      -5       5        0.000000        3.146427        0.090285
      -2       5      -5        0.000000        3.100000        0.125105
       3      -5       5        0.000000        1.571623        0.108749
      -3      -5      -5        0.000000        1.816590        0.107789
      -3      -5      -5        0.000000        1.920937        0.115390
      -3       5      -5        0.000000        1.670329        0.210877
      -4      -5      -5        0.000000        1.590597        0.151848
      -4      -5      -5        0.000000        1.445683        0.168969
      -4       5      -5        0.000000        0.860233        0.860233
      -5      -5      -5        0.000000        0.141421        0.707107
      -4      -6       5        0.000000        1.417745        0.226107
      -4      -6       5        0.000000        1.400000        0.183447
      -3      -6       5        0.000000        2.351595        0.115527
      -3      -6       5        0.000000        2.137756        0.135257
      -3      -6       5        0.000000        2.451530        0.123441
       3      -6      -5        0.000000        2.334524        0.114163
      -2      -6       5        0.000000        1.077033        0.102354
      -2      -6       5        0.000000        1.166190        0.146386
       2      -6      -5        0.000000        1.063015        0.135653
      -2      -6       5        0.000000        0.854400        0.154400
      -2       6       5        0.000000        0.685565        0.685565
       1      -6      -5        0.000000        4.607602        0.117614
      -1      -6       5        0.000000        4.567275        0.118680
      -1      -6       5        0.000000        4.603260        0.114385
      -1       6       5        0.000000        5.111751        0.127777
       0      -6      -5        0.000000        6.031584        0.137519
       0      -6      -5        0.000000        5.966574        0.125341
       0      -6       5        0.000000        6.021628        0.130108
       0      -6       5        0.000000        6.069596        0.135795
       0       6       5        0.000000        6.219325        0.133275
       1      -6       5        0.000000        4.414748        0.110099
      -1      -6      -5        0.000000        4.334743        0.126418
      -1      -6      -5        0.000000        4.483302        0.110660
      -2      -6      -5        0.000000        0.519615        0.255040
      -2      -6      -5        0.000000        0.787401        0.212945
      -2      -6      -5        0.000000        0.728011        0.189495
       2      -6       5        0.000000        0.223607        0.314910
      -2       6      -5        0.000000        0.734847        0.322536
       3      -6       5        0.000000        0.959166        0.184570
      -3      -6      -5        0.000000        1.044031        0.322920
      -3      -6      -5        0.000000        1.260952        0.151898
      -4      -6      -5        0.000000        1.113553        0.276893
      -4      -6      -5        0.000000        0.748331        0.548331
      -4      -7       5        0.000000        0.100000        0.661577
      -4       7       5        0.000000        0.969536        0.969536
       3      -7      -5        0.000000        0.412311        0.412311
      -3      -7       5        0.000000        0.648074        0.474869
      -3      -7       5        0.000000        0.583095        0.583095
      -3      -7       5        0.000000        0.678233        0.454626
       2      -7      -5        0.000000        3.746999        0.115195
      -2      -7       5        0.000000        3.947151        0.115702
      -2      -7       5        0.000000        4.042277        0.102733
      -2      -7       5        0.000000        4.001250        0.119240
       1      -7      -5        0.000000        5.556078        0.132057
      -1      -7       5        0.000000        5.579426        0.132409
      -1      -7       5        0.000000        5.522681        0.130093
       0      -7       5        0.000000        5.024938        0.113726
       0      -7       5        0.000000        5.015974        0.124145
       0      -7      -5        0.000000        5.023943        0.107643
       0      -7      -5        0.000000        4.968903        0.125351
       0       7       5        0.000000        4.963869        0.126515
      -1      -7      -5        0.000000        0.741620        0.262037
      -1      -7      -5        0.000000        0.761577        0.153301
      -1      -7      -5        0.000000        0.616441        0.270031
       2      -7       5        0.000000        1.658312        0.122083
      -2      -7      -5        0.000000        1.852026        0.114211
      -2      -7      -5        0.000000        1.705872        0.140625
      -2      -7      -5        0.000000        1.723369        0.110917
      -2       7      -5        0.000000        1.946792        0.180440
      -3      -7      -5        0.000000        1.752142        0.145904
       3      -7       5        0.000000        1.643168        0.149849
      -3      -7      -5        0.000000        1.549193        0.167166
      -3       7      -5        0.000000        1.717556        0.289271
      -4      -7      -5        0.000000        2.042058        0.173904
      -4      -7      -5        0.000000        1.972308        0.186251
      -4       7      -5        0.000000        0.943398        0.943398
      -4       8       5        0.000000        1.166190        1.166190
      -3      -8       5        0.000000        1.349074        0.165858
      -3      -8       5        0.000000        0.812404        0.451849
      -3      -8       5        0.000000        0.866025        0.418812
      -2      -8       5        0.000000        4.789572        0.121596
      -2      -8       5        0.000000        4.850773        0.132723
      -2      -8       5        0.000000        4.870318        0.132175
       2      -8      -5        0.000000        4.804165        0.134047
       1      -8      -5        0.000000        3.264966        0.118539
      -1      -8       5        0.000000        3.155947        0.126095
      -1      -8       5        0.000000        3.124100        0.115778
       0      -8       5        0.000000        0.412311        0.412311
      -1      -8      -5        0.000000        2.868798        0.161400
       1      -8       5        0.000000        2.643861        0.141862
      -1       8      -5        0.000000        2.749545        0.163042
      -2      -8      -5        0.000000        2.662705        0.124990
      -2      -8      -5        0.000000        2.611513        0.117520
       2      -8       5        0.000000        2.383275        0.142739
      -2      -8      -5        0.000000        2.707397        0.152011
      -2       8      -5        0.000000        2.747726        0.186477
      -3      -8      -5        0.000000        0.678233        0.678233
      -3      -8      -5        0.000000        0.927362        0.361676
       3      -8       5        0.000000        0.000000        0.707107
      -3       8      -5        0.000000        1.063015        0.675716
      -3      -9       5        0.000000        4.264974        0.169855
      -3      -9       5        0.000000        4.301163        0.162322
      -3      -9       5        0.000000        4.294182        0.138463
       2      -9      -5        0.000000        0.754983        0.423321
      -2      -9       5        0.000000        1.044031        0.289047
       1      -9      -5        0.000000        0.556776        0.556776
      -1      -9       5        0.000000        0.670820        0.670820
      -1      -9       5        0.000000        0.424264        0.424264
       0      -9      -5        0.000000        0.959166        0.411444
       0      -9      -5        0.000000        0.900000        0.275500
       0      -9       5        0.000000        1.500000        0.162091
      -1      -9      -5        0.000000        1.400000        0.233810
       1      -9       5        0.000000        1.268858        0.201150
      -1      -9      -5        0.000000        1.334166        0.189614
      -2      -9      -5        0.000000        0.648074        0.648074
       2      -9       5        0.000000        0.316228        0.471173
      -2      -9      -5        0.000000        0.787401        0.307818
      -2       9      -5        0.000000        1.174734        0.558293
      -2     -10       5        0.000000        0.547723        0.547723
      -2     -10       5        0.000000        1.208305        0.223419
      -2     -10       5        0.000000        1.212436        0.457452
       2     -10      -5        0.000000        0.761577        0.761577
       1     -10      -5        0.000000        0.538516        0.538516
       1     -10      -5        0.000000        0.547723        0.547723
      -1     -10       5        0.000000        1.109054        0.290518
       0     -10       5        0.000000        0.374166        0.425834
       0     -10      -5        0.000000        0.824621        0.824621
       0     -10      -5        0.000000        0.655744        0.655744
      -1      10      -5        0.000000        0.994987        0.994987
       2     -10       5        0.000000        1.774824        0.212774
      -2     -10      -5        0.000000        1.949359        0.237635
      -2      10      -5        0.000000        1.558846        0.563858
      -5       0       6        0.000000        1.000000        0.238423
      -4       0       6        0.000000        4.538722        0.110404
      -4       0       6        0.000000        4.660472        0.157140
      -4       0       6        0.000000        4.502222        0.121582
      -3       0       6        0.000000        0.640312        0.293902
      -3       0       6        0.000000        0.387298        0.387298
       3       0      -6        0.000000        0.412311        0.270889
       2       0      -6        0.000000        9.103296        0.184215
      -2       0       6        0.000000        9.146037        0.195618
      -2       0       6        0.000000        9.070832        0.187702
       2       0      -6        0.000000        9.353074        0.181379
      -2       0       6        0.000000        9.182592        0.182592
       1       0      -6        0.000000        0.200000        0.058579
      -1       0       6        0.000000        0.200000        0.200000
       1       0      -6        0.000000        0.141421        0.141421
       0       0      -6        0.000000        5.855766        0.120786
       0       0       6        0.000000        5.946427        0.118907
       0       0      -6        0.000000        6.011655        0.122683
       0       0       6        0.000000        6.013319        0.122648
      -1       0      -6        0.000000        0.000000        0.282843
       1       0       6        0.000000        0.173205        0.173205
      -1       0      -6        0.000000        0.316228        0.116228
       1       0       6        0.000000        0.200000        0.200000
      -1       0      -6        0.000000        0.173205        0.173205
       2       0       6        0.000000        8.689074        0.174380
      -2       0      -6        0.000000        8.620325        0.187057
       2       0       6        0.000000        8.649855        0.174597
       3       0       6        0.000000        0.300000        0.300000
      -4       0      -6        0.000000        3.389690        0.185006
      -4       0      -6        0.000000        3.322650        0.105508
       4       0       6        0.000000        3.366007        0.094921
      -4       0      -6        0.000000        3.271085        0.104068
      -5       0      -6        0.000000        0.565685        0.565685
      -5       0      -6        0.000000        0.331662        0.804119
      -5      -1       6        0.000000        2.229350        0.150889
      -5       1       6        0.000000        2.611513        0.253548
      -5       1       6        0.000000        1.951922        0.151922
      -4      -1       6        0.000000        0.989949        0.159287
      -4      -1       6        0.000000        0.244949        0.302774
      -4       1       6        0.000000        0.830662        0.190350
      -4       1       6        0.000000        0.734847        0.734847
      -3      -1       6        0.000000        5.052722        0.121191
       3      -1      -6        0.000000        5.200000        0.110796
      -3      -1       6        0.000000        5.154610        0.112785
      -3       1       6        0.000000        5.076416        0.116577
       3       1      -6        0.000000        5.163332        0.118533
      -2      -1       6        0.000000        2.455606        0.074430
      -2      -1       6        0.000000        2.463737        0.063737
       2      -1      -6        0.000000        2.395830        0.067740
      -2      -1       6        0.000000        2.400000        0.056925
       2      -1      -6        0.000000        2.545584        0.069701
      -2       1       6        0.000000        2.147091        0.137116
       2       1      -6        0.000000        2.477902        0.079987
       2       1      -6        0.000000        2.501999        0.054552
      -2       1       6        0.000000        2.501999        0.068894
       2       1      -6        0.000000        2.479919        0.061242
       1      -1      -6        0.000000        9.950879        0.196906
      -1      -1       6        0.000000        9.619771        0.196396
      -1      -1       6        0.000000        9.635352        0.195013
       1      -1      -6        0.000000        9.797959        0.191191
      -1      -1       6        0.000000        9.841240        0.193442
       1      -1      -6        0.000000        9.732420        0.195649
      -1      -1       6        0.000000        9.663850        0.193370
       1       1      -6        0.000000        9.682975        0.198250
      -1       1       6        0.000000        9.640021        0.200741
      -1       1       6        0.000000        9.810199        0.190947
      -1       1       6        0.000000        9.706699        0.193550
       1       1      -6        0.000000        9.778548        0.192099
       0      -1       6        0.000000        6.565059        0.129999
       0      -1       6        0.000000        6.226556        0.129016
       0      -1       6        0.000000        6.253799        0.130891
       0      -1      -6        0.000000        6.322183        0.127024
       0      -1      -6        0.000000        6.271363        0.132960
       0       1       6        0.000000        6.593937        0.127871
       0       1      -6        0.000000        6.264184        0.136378
       0       1      -6        0.000000        6.298412        0.129944
       1      -1       6        0.000000       11.177209        0.225497
       1      -1       6        0.000000       11.830892        0.216246
      -1      -1      -6        0.000000       11.224081        0.225445
      -1      -1      -6        0.000000       11.350330        0.222887
      -1      -1      -6        0.000000       11.428911        0.222662
       1      -1       6        0.000000       11.290261        0.224097
       1      -1       6        0.000000       10.985900        0.229971
      -1      -1      -6        0.000000       11.157061        0.226370
      -1       1      -6        0.000000       11.158405        0.226342
       1       1       6        0.000000       11.014990        0.228888
       1       1       6        0.000000       11.274307        0.224420
      -1       1      -6        0.000000       10.938464        0.235194
       1       1       6        0.000000       11.747766        0.216070
      -2      -1      -6        0.000000        3.465545        0.089156
       2      -1       6        0.000000        3.640055        0.087591
       2      -1       6        0.000000        3.471311        0.084572
      -2      -1      -6        0.000000        3.421988        0.090321
      -2       1      -6        0.000000        3.548239        0.110216
       2       1       6        0.000000        3.572114        0.084995
      -2       1      -6        0.000000        3.433657        0.087017
      -3      -1      -6        0.000000        0.616441        0.169228
      -3      -1      -6        0.000000        0.529150        0.529150
       3      -1       6        0.000000        0.714143        0.194528
      -3      -1      -6        0.000000        0.793725        0.115492
       3      -1       6        0.000000        0.648074        0.138172
      -3       1      -6        0.000000        0.264575        0.477045
      -3       1      -6        0.000000        0.600000        0.141742
       3       1       6        0.000000        0.424264        0.424264
      -3       1      -6        0.000000        0.458258        0.213309
       4      -1       6        0.000000        0.871780        0.150670
      -4      -1      -6        0.000000        0.387298        0.501521
      -4      -1      -6        0.000000        1.166190        0.141495
      -4      -1      -6        0.000000        1.122497        0.137611
       4       1       6        0.000000        0.984886        0.130485
      -4       1      -6        0.000000        0.964365        0.540101
      -4       1      -6        0.000000        1.095445        0.157362
      -5      -1      -6        0.000000        0.565685        0.565685
      -5      -2       6        0.000000        0.640312        0.640312
      -5       2       6        0.000000        0.583095        0.583095
      -4      -2       6        0.000000        1.655295        0.109332
      -4      -2       6        0.000000        1.676305        0.130343
      -4       2       6        0.000000        1.558846        0.113162
      -4       2       6        0.000000        1.122497        0.335096
      -3      -2       6        0.000000        2.910326        0.083668
      -3      -2       6        0.000000        2.925748        0.095553
       3      -2      -6        0.000000        2.819574        0.090106
       3       2      -6        0.000000        2.882707        0.115037
      -3       2       6        0.000000        2.707397        0.153968
       3       2      -6        0.000000        2.882707        0.070235
      -3       2       6        0.000000        2.988311        0.081422
      -2      -2       6        0.000000        5.591064        0.119319
      -2      -2       6        0.000000        5.677147        0.116572
       2      -2      -6        0.000000        5.749783        0.113294
      -2      -2       6        0.000000        5.637375        0.124663
      -2      -2       6        0.000000        5.813777        0.113777
       2      -2      -6        0.000000        5.600000        0.118212
      -2       2       6        0.000000        5.615158        0.115158
       2       2      -6        0.000000        5.633826        0.130191
       2       2      -6        0.000000        5.630275        0.117563
      -2       2       6        0.000000        5.543465        0.120366
      -2       2       6        0.000000        5.788782        0.142545
       1      -2      -6        0.000000        5.002000        0.109148
      -1      -2       6        0.000000        4.972927        0.111857
       1      -2      -6        0.000000        5.083306        0.114403
      -1      -2       6        0.000000        5.012983        0.108903
      -1      -2       6        0.000000        5.396295        0.112357
       1      -2      -6        0.000000        4.940648        0.121934
      -1       2       6        0.000000        5.257376        0.117337
      -1       2       6        0.000000        5.237366        0.101219
       1       2      -6        0.000000        5.169139        0.118397
       1       2      -6        0.000000        5.095096        0.108113
      -1       2       6        0.000000        5.223026        0.104432
       0      -2       6        0.000000       19.142623        0.361781
       0      -2      -6        0.000000       18.427425        0.374171
       0      -2      -6        0.000000       18.594354        0.370743
       0      -2       6        0.000000       18.392118        0.373516
       0       2       6        0.000000       18.562058        0.368928
       0       2       6        0.000000       18.942281        0.362722
      -1      -2      -6        0.000000        0.244949        0.244949
      -1      -2      -6        0.000000        0.331662        0.158457
      -1      -2      -6        0.000000        0.100000        0.164575
       1      -2       6        0.000000        0.300000        0.158579
       1       2       6        0.000000        0.244949        0.244949
       1       2       6        0.000000        0.331662        0.190241
      -2      -2      -6        0.000000        1.204159        0.077217
      -2      -2      -6        0.000000        1.319091        0.114931
       2      -2       6        0.000000        1.319091        0.074101
       2      -2       6        0.000000        1.216553        0.167744
      -2      -2      -6        0.000000        1.292285        0.079849
      -2       2      -6        0.000000        1.276715        0.132162
       2       2       6        0.000000        1.319091        0.106655
      -2       2      -6        0.000000        1.174734        0.070198
      -3      -2      -6        0.000000        1.212436        0.202485
      -3      -2      -6        0.000000        0.969536        0.121008
      -3      -2      -6        0.000000        0.900000        0.131885
       3      -2       6        0.000000        0.871780        0.361878
       3      -2       6        0.000000        0.916515        0.097980
      -3       2      -6        0.000000        0.331662        0.361158
      -3       2      -6        0.000000        1.019804        0.108761
       4      -2       6        0.000000        3.574913        0.096407
      -4      -2      -6        0.000000        3.597221        0.162108
      -4      -2      -6        0.000000        3.507136        0.111550
      -4      -2      -6        0.000000        3.529873        0.109346
      -4       2      -6        0.000000        3.449638        0.105987
      -5      -2      -6        0.000000        1.913113        0.155273
      -5      -2      -6        0.000000        2.247221        0.142464
      -5      -3       6        0.000000        0.932738        0.358282
      -5       3       6        0.000000        1.824829        0.442801
      -4      -3       6        0.000000        1.894730        0.131210
      -4      -3       6        0.000000        1.878829        0.106825
      -4       3       6        0.000000        1.783255        0.100995
      -4       3       6        0.000000        2.249444        0.246946
       4       3      -6        0.000000        1.646208        0.334720
      -3      -3       6        0.000000        2.224860        0.082431
      -3      -3       6        0.000000        2.224860        0.103539
       3       3      -6        0.000000        1.910497        0.187129
      -3       3       6        0.000000        2.289105        0.179602
      -3       3       6        0.000000        2.364318        0.075213
       2      -3      -6        0.000000        3.916631        0.085182
      -2      -3       6        0.000000        3.862642        0.099664
      -2      -3       6        0.000000        3.849675        0.089356
      -2      -3       6        0.000000        3.865230        0.087664
      -2      -3       6        0.000000        3.776242        0.099286
      -2       3       6        0.000000        3.836665        0.086999
      -2       3       6        0.000000        3.843176        0.128341
       2       3      -6        0.000000        3.655133        0.149424
      -2       3       6        0.000000        3.915354        0.081296
       1      -3      -6        0.000000       13.892084        0.262704
       1      -3      -6        0.000000       13.154467        0.280074
      -1      -3       6        0.000000       13.226867        0.276191
      -1      -3       6        0.000000       13.586390        0.268733
      -1       3       6        0.000000       13.952419        0.267756
       0      -3      -6        0.000000        0.624500        0.124500
       0      -3       6        0.000000        0.519615        0.095351
       0      -3      -6        0.000000        0.529150        0.104886
       0       3       6        0.000000        0.458258        0.084092
       0       3      -6        0.000000        0.707107        0.319808
       0       3       6        0.000000        0.400000        0.135425
      -1      -3      -6        0.000000        4.778075        0.103677
      -1      -3      -6        0.000000        4.824935        0.102648
       1      -3       6        0.000000        4.761302        0.106198
      -1      -3      -6        0.000000        4.846648        0.108505
       1       3       6        0.000000        4.709565        0.097624
      -2      -3      -6        0.000000        1.734935        0.073610
       2      -3       6        0.000000        1.714643        0.080629
      -2      -3      -6        0.000000        1.621727        0.082247
      -2      -3      -6        0.000000        1.667333        0.073595
       2       3       6        0.000000        1.584298        0.097691
      -2       3      -6        0.000000        1.752142        0.115071
      -3      -3      -6        0.000000        5.103920        0.118943
       3      -3       6        0.000000        5.061620        0.114904
      -3      -3      -6        0.000000        5.063596        0.120924
      -3       3      -6        0.000000        4.971921        0.155283
      -4      -3      -6        0.000000        3.049590        0.182536
      -4      -3      -6        0.000000        3.452535        0.111877
       4      -3       6        0.000000        3.498571        0.100042
      -5      -3      -6        0.000000        1.341641        0.219144
      -5      -3      -6        0.000000        1.374773        0.234597
      -5       3      -6        0.000000        1.095445        1.095445
      -5      -4       6        0.000000        1.345362        0.263697
      -5       4       6        0.000000        1.897367        0.434493
      -4      -4       6        0.000000        0.489898        0.489898
      -4      -4       6        0.000000        0.458258        0.458258
       4       4      -6        0.000000        0.692820        0.692820
      -3      -4       6        0.000000        1.574802        0.122218
       3      -4      -6        0.000000        1.469694        0.084053
      -3      -4       6        0.000000        1.766352        0.096023
      -3      -4       6        0.000000        1.496663        0.093096
       3       4      -6        0.000000        1.555635        0.306635
      -3       4       6        0.000000        1.303840        0.324045
       2      -4      -6        0.000000        7.706491        0.155994
      -2      -4       6        0.000000        7.897468        0.154084
      -2      -4       6        0.000000        7.688303        0.155707
      -2      -4       6        0.000000        7.758866        0.160182
       2       4      -6        0.000000        7.022820        0.207396
       1      -4      -6        0.000000        0.781025        0.095460
      -1      -4       6        0.000000        0.793725        0.108160
       1       4      -6        0.000000        1.029563        0.287943
      -1       4       6        0.000000        0.300000        0.300000
       0      -4      -6        0.000000        4.458699        0.089489
       0      -4       6        0.000000        4.392038        0.102516
       0       4      -6        0.000000        4.221374        0.160586
       0       4       6        0.000000        4.486647        0.090057
      -1      -4      -6        0.000000        1.944222        0.076068
      -1      -4      -6        0.000000        1.939072        0.065573
      -1      -4      -6        0.000000        1.939072        0.092453
      -1      -4      -6        0.000000        2.014944        0.068152
       1      -4       6        0.000000        1.788854        0.080054
      -2      -4      -6        0.000000        7.377669        0.149945
      -2      -4      -6        0.000000        7.289719        0.151792
      -2      -4      -6        0.000000        7.316420        0.151924
       2      -4       6        0.000000        7.274613        0.152816
       2       4       6        0.000000        7.096478        0.155297
      -2       4      -6        0.000000        7.102816        0.171006
      -3      -4      -6        0.000000        1.371131        0.118135
       3      -4       6        0.000000        1.456022        0.095875
      -3      -4      -6        0.000000        1.506652        0.113813
      -3       4      -6        0.000000        1.421267        0.221267
      -4      -4      -6        0.000000        1.621727        0.138488
      -4      -4      -6        0.000000        1.835756        0.132817
       4      -4       6        0.000000        1.682260        0.165685
      -5      -4      -6        0.000000        2.924038        0.152757
      -5      -4      -6        0.000000        3.006659        0.158853
      -5      -5       6        0.000000        0.529150        0.529150
      -5       5       6        0.000000        1.296148        0.908850
      -4      -5       6        0.000000        1.195826        0.205877
      -4      -5       6        0.000000        1.232883        0.193652
      -4       5       6        0.000000        0.100000        0.953565
       4       5      -6        0.000000        1.456022        0.701039
      -3      -5       6        0.000000        3.269557        0.099383
      -3      -5       6        0.000000        3.394113        0.100179
      -3      -5       6        0.000000        3.438023        0.113869
       3      -5      -6        0.000000        3.195309        0.114725
       3       5      -6        0.000000        3.522783        0.274707
      -2      -5       6        0.000000        0.000000        0.387298
       2      -5      -6        0.000000        0.300000        0.300000
      -2      -5       6        0.000000        0.447214        0.223607
      -2       5       6        0.000000        0.768115        0.503539
       2       5      -6        0.000000        0.509902        0.509902
      -1      -5       6        0.000000        1.926136        0.084941
       1      -5      -6        0.000000        2.032240        0.085448
      -1      -5       6        0.000000        1.843909        0.080390
       1       5      -6        0.000000        1.382027        0.286582
       0      -5      -6        0.000000        2.863564        0.086876
       0      -5       6        0.000000        2.749545        0.086840
       0      -5      -6        0.000000        2.785678        0.065384
       0       5       6        0.000000        2.867054        0.084969
       1      -5       6        0.000000        7.068946        0.155192
      -1      -5      -6        0.000000        7.142829        0.154982
      -1      -5      -6        0.000000        7.037755        0.151537
      -1      -5      -6        0.000000        6.918815        0.165297
       1       5       6        0.000000        7.667464        0.135532
      -2      -5      -6        0.000000        1.183216        0.101551
      -2      -5      -6        0.000000        1.067708        0.124310
       2      -5       6        0.000000        1.126943        0.102248
      -2      -5      -6        0.000000        1.100000        0.125321
      -2       5      -6        0.000000        1.303840        0.159288
       3      -5       6        0.000000        2.149419        0.109811
      -3      -5      -6        0.000000        2.156386        0.124146
      -3      -5      -6        0.000000        2.088061        0.113220
      -3       5      -6        0.000000        2.085665        0.206836
      -4      -5      -6        0.000000        1.252996        0.213766
      -4      -5      -6        0.000000        1.652271        0.148942
      -4       5      -6        0.000000        0.519615        0.629297
      -4      -6       6        0.000000        3.062679        0.159232
      -4      -6       6        0.000000        3.098387        0.143729
      -3      -6       6        0.000000        0.608276        0.466855
      -3      -6       6        0.000000        0.927362        0.192515
       3      -6      -6        0.000000        0.877496        0.177496
      -3      -6       6        0.000000        1.004988        0.168328
      -3       6       6        0.000000        0.223607        0.681932
       2      -6      -6        0.000000        1.296148        0.125678
      -2      -6       6        0.000000        1.232883        0.105940
      -2      -6       6        0.000000        1.288410        0.135154
      -2      -6       6        0.000000        1.292285        0.121815
       2       6      -6        0.000000        0.959166        0.959166
      -2       6       6        0.000000        0.489898        0.489898
      -1      -6       6        0.000000        3.154362        0.103133
       1      -6      -6        0.000000        3.312099        0.098067
      -1      -6       6        0.000000        3.228002        0.095911
       0      -6      -6        0.000000        5.659505        0.130491
       0      -6       6        0.000000        5.564171        0.123583
       0      -6       6        0.000000        5.727128        0.128914
       0      -6      -6        0.000000        5.616939        0.115121
       0       6       6        0.000000        5.712268        0.128362
      -1      -6      -6        0.000000        0.387298        0.387298
       1      -6       6        0.000000        0.244949        0.244949
      -2      -6      -6        0.000000        1.652271        0.125837
      -2      -6      -6        0.000000        1.574802        0.108514
      -2      -6      -6        0.000000        1.964688        0.107271
       2      -6       6        0.000000        1.700000        0.109403
      -2       6      -6        0.000000        1.849324        0.167064
      -3      -6      -6        0.000000        1.618641        0.125323
      -3      -6      -6        0.000000        1.857418        0.128256
       3      -6       6        0.000000        1.609348        0.119381
      -3       6      -6        0.000000        1.428286        0.305788
      -4      -6      -6        0.000000        0.921954        0.330346
      -4      -7       6        0.000000        0.830662        0.484252
      -4       7       6        0.000000        1.044031        1.044031
      -3      -7       6        0.000000        1.476482        0.164995
       3      -7      -6        0.000000        1.200000        0.175305
      -3      -7       6        0.000000        1.300000        0.164218
      -3      -7       6        0.000000        1.244990        0.200959
      -2      -7       6        0.000000        3.686462        0.111549
      -2      -7       6        0.000000        3.646917        0.118461
      -2      -7       6        0.000000        3.608324        0.099763
       2      -7      -6        0.000000        3.512834        0.115776
      -1      -7       6        0.000000        1.838478        0.103542
      -1      -7       6        0.000000        1.565248        0.129978
       1      -7      -6        0.000000        1.640122        0.116967
       0      -7       6        0.000000        1.780449        0.116118
       0      -7      -6        0.000000        1.729162        0.119814
       0      -7       6        0.000000        1.905256        0.091420
       0       7       6        0.000000        1.905256        0.130432
      -1      -7      -6        0.000000        2.332381        0.139210
      -1      -7      -6        0.000000        2.027313        0.122058
      -1      -7      -6        0.000000        2.400000        0.086993
       1      -7       6        0.000000        2.376973        0.107612
      -1       7      -6        0.000000        2.170253        0.157792
      -2      -7      -6        0.000000        0.583095        0.318520
      -2      -7      -6        0.000000        0.670820        0.234930
      -2      -7      -6        0.000000        0.640312        0.357470
       2      -7       6        0.000000        0.877496        0.184676
      -2       7      -6        0.000000        0.787401        0.400102
       3      -7       6        0.000000        0.264575        0.572085
      -4      -7      -6        0.000000        0.848528        0.603579
      -4      -7      -6        0.000000        1.276715        0.261825
      -3      -8       6        0.000000        2.649528        0.133579
      -3      -8       6        0.000000        2.465766        0.146283
      -3      -8       6        0.000000        2.515949        0.147405
      -2      -8       6        0.000000        0.905539        0.177528
      -2      -8       6        0.000000        0.842615        0.268159
       2      -8      -6        0.000000        0.830662        0.301512
      -2      -8       6        0.000000        0.741620        0.381065
      -1      -8       6        0.000000        1.881489        0.149438
      -1      -8       6        0.000000        1.849324        0.125955
       1      -8      -6        0.000000        1.926136        0.131700
       0      -8       6        0.000000        1.000000        0.151472
       0      -8      -6        0.000000        0.721110        0.262853
       0      -8       6        0.000000        0.877496        0.214171
      -1      -8      -6        0.000000        0.374166        0.374166
      -1       8      -6        0.000000        0.300000        0.468115
      -2      -8      -6        0.000000        1.526434        0.137189
       2      -8       6        0.000000        1.526434        0.158954
      -2      -8      -6        0.000000        1.643168        0.143168
      -2      -8      -6        0.000000        1.670329        0.167000
      -2       8      -6        0.000000        1.740690        0.214256
      -3      -8      -6        0.000000        1.330413        0.225877
      -3      -8      -6        0.000000        1.174734        0.226051
       3      -8       6        0.000000        1.311488        0.216043
      -3       8      -6        0.000000        1.170470        0.641320
      -3      -9       6        0.000000        0.748331        0.548331
      -3      -9       6        0.000000        0.685565        0.685565
      -3      -9       6        0.000000        0.346410        0.553590
       2      -9      -6        0.000000        0.547723        0.547723
      -2      -9       6        0.000000        0.871780        0.392197
      -2      -9       6        0.000000        0.911043        0.319435
      -2      -9       6        0.000000        1.044031        0.213368
      -1      -9       6        0.000000        1.166190        0.212251
       1      -9      -6        0.000000        1.077033        0.234418
      -1      -9       6        0.000000        1.264911        0.201896
       0      -9      -6        0.000000        0.728011        0.353845
       0      -9      -6        0.000000        0.509902        0.509902
       1      -9       6        0.000000        0.979796        0.265653
      -1      -9      -6        0.000000        0.591608        0.591608
      -1      -9      -6        0.000000        1.067708        0.237045
      -1       9      -6        0.000000        0.583095        0.583095
       2      -9       6        0.000000        1.284523        0.250115
      -2      -9      -6        0.000000        1.910497        0.195854
      -2      -9      -6        0.000000        1.740690        0.165888
      -2       9      -6        0.000000        2.107131        0.285044
      -3      -9      -6        0.000000        3.521363        0.177713
       3      -9       6        0.000000        3.815757        0.167470
      -2     -10       6        0.000000        1.456022        0.260196
      -2     -10       6        0.000000        1.009950        0.693723
       2     -10      -6        0.000000        1.688194        0.239057
      -2     -10       6        0.000000        1.296148        0.219115
       1     -10      -6        0.000000        1.466288        0.241543
      -1     -10       6        0.000000        1.296148        0.247339
       1     -10      -6        0.000000        1.118034        0.462290
       0     -10       6        0.000000        0.728011        0.628011
       0     -10      -6        0.000000        1.109054        0.278391
       0     -10      -6        0.000000        1.330413        0.345528
      -1     -10      -6        0.000000        0.479583        0.479583
       1     -10       6        0.000000        1.126943        0.290283
      -1      10      -6        0.000000        0.943398        0.943398
       2     -10       6        0.000000        1.574802        0.240635
      -2      10      -6        0.000000        1.723369        0.486437
      -5       0       7        0.000000        2.479919        0.138979
      -4       0       7        0.000000        0.316228        0.316228
      -4       0       7        0.000000        0.173205        0.383571
      -3       0       7        0.000000        1.417745        0.094869
      -3       0       7        0.000000        1.500000        0.078733
      -3       0       7        0.000000        1.819341        0.155009
       3       0      -7        0.000000        1.489966        0.100722
      -2       0       7        0.000000        0.244949        0.244949
       2       0      -7        0.000000        0.244949        0.244949
       2       0      -7        0.000000        0.223607        0.223607
      -1       0       7        0.000000        2.172556        0.063054
      -1       0       7        0.000000        2.151743        0.049364
       1       0      -7        0.000000        2.114237        0.067289
       1       0      -7        0.000000        2.135416        0.081152
       1       0      -7        0.000000        2.147091        0.044711
       0       0      -7        0.000000        0.316228        0.143023
       0       0      -7        0.000000        0.223607        0.082185
       0       0       7        0.000000        0.374166        0.057938
       1       0       7        0.000000        1.322876        0.057965
      -1       0      -7        0.000000        1.268858        0.056422
      -1       0      -7        0.000000        1.371131        0.071131
       1       0       7        0.000000        1.352775        0.056627
       1       0       7        0.000000        1.378405        0.070735
       2       0       7        0.000000        0.141421        0.190241
      -2       0      -7        0.000000        0.141421        0.190241
       3       0       7        0.000000        6.791907        0.142095
      -3       0      -7        0.000000        6.852007        0.143803
       3       0       7        0.000000        6.737952        0.143257
      -3       0      -7        0.000000        6.805145        0.146316
      -4       0      -7        0.000000        0.360555        0.360555
      -4       0      -7        0.000000        0.591608        0.275380
      -5       0      -7        0.000000        0.854400        0.854400
      -5       0      -7        0.000000        0.824621        0.314719
      -5      -1       7        0.000000        0.871780        0.352165
      -4      -1       7        0.000000        1.870829        0.118687
      -4      -1       7        0.000000        1.802776        0.102776
      -4       1       7        0.000000        1.987461        0.111294
      -4       1       7        0.000000        2.269361        0.202963
      -3      -1       7        0.000000        1.034408        0.117893
      -3      -1       7        0.000000        1.029563        0.096825
       3      -1      -7        0.000000        1.183216        0.083216
       3       1      -7        0.000000        1.256981        0.112428
      -3       1       7        0.000000        1.113553        0.108565
      -3       1       7        0.000000        0.754983        0.254983
       2      -1      -7        0.000000        1.303840        0.066909
       2      -1      -7        0.000000        1.315295        0.074327
      -2      -1       7        0.000000        1.236932        0.092379
      -2      -1       7        0.000000        1.326650        0.057792
      -2      -1       7        0.000000        1.319091        0.042376
       2       1      -7        0.000000        1.256981        0.044545
       2       1      -7        0.000000        1.389244        0.089244
      -2       1       7        0.000000        1.330413        0.073433
      -1      -1       7        0.000000        3.287856        0.066056
      -1      -1       7        0.000000        3.277194        0.078757
      -1      -1       7        0.000000        3.174902        0.071677
       1      -1      -7        0.000000        3.203123        0.080624
       1      -1      -7        0.000000        3.278719        0.092813
      -1       1       7        0.000000        3.318132        0.085486
      -1       1       7        0.000000        3.255764        0.069858
      -1       1       7        0.000000        3.130495        0.072718
       1       1      -7        0.000000        3.179623        0.086081
       1       1      -7        0.000000        3.201562        0.071067
       0      -1       7        0.000000        1.337909        0.080928
       0      -1       7        0.000000        1.330413        0.049789
       0      -1       7        0.000000        1.349074        0.041404
       0      -1      -7        0.000000        1.284523        0.063868
       0      -1      -7        0.000000        1.244990        0.040831
       0       1       7        0.000000        1.252996        0.069780
       0       1      -7        0.000000        1.252996        0.074014
       0       1      -7        0.000000        1.200000        0.051087
       1      -1       7        0.000000        2.406242        0.067439
       1      -1       7        0.000000        2.349468        0.064736
      -1      -1      -7        0.000000        2.418677        0.062834
      -1      -1      -7        0.000000        2.410394        0.067319
      -1      -1      -7        0.000000        2.381176        0.066009
      -1      -1      -7        0.000000        2.315167        0.061282
       1      -1       7        0.000000        2.561250        0.077301
       1      -1       7        0.000000        2.260531        0.065081
       1       1       7        0.000000        2.381176        0.061693
       1       1       7        0.000000        2.389561        0.072235
      -1       1      -7        0.000000        2.400000        0.061197
      -1       1      -7        0.000000        2.133073        0.103295
       1       1       7        0.000000        2.304344        0.066041
      -2      -1      -7        0.000000        5.109795        0.118803
      -2      -1      -7        0.000000        5.094114        0.120182
       2      -1       7        0.000000        5.210566        0.115471
       2      -1       7        0.000000        5.627611        0.112178
       2       1       7        0.000000        5.407402        0.113066
      -2       1      -7        0.000000        5.232590        0.115951
      -3      -1      -7        0.000000        1.565248        0.190475
       3      -1       7        0.000000        1.726268        0.129396
      -3      -1      -7        0.000000        1.843909        0.091767
       3      -1       7        0.000000        1.673320        0.089022
      -3      -1      -7        0.000000        1.661325        0.092886
      -3       1      -7        0.000000        1.780449        0.089296
      -4      -1      -7        0.000000        2.666458        0.200693
       4      -1       7        0.000000        2.535744        0.100585
      -4      -1      -7        0.000000        2.592296        0.112377
      -4      -1      -7        0.000000        2.694439        0.104072
       4       1       7        0.000000        2.666458        0.095466
      -4       1      -7        0.000000        2.572936        0.105144
      -5      -1      -7        0.000000        0.173205        0.533902
      -5      -1      -7        0.000000        0.707107        0.390879
      -5      -1      -7        0.000000        0.984886        0.984886
      -5       1      -7        0.000000        1.039230        0.264634
      -5      -2       7        0.000000        1.752142        0.186894
      -5       2       7        0.000000        1.743560        0.350721
      -5       2       7        0.000000        1.664332        0.151057
      -4      -2       7        0.000000        0.905539        0.157207
      -4      -2       7        0.000000        0.435890        0.435890
      -4       2       7        0.000000        0.360555        0.539445
       4       2      -7        0.000000        0.768115        0.768115
      -4       2       7        0.000000        0.685565        0.249676
      -3      -2       7        0.000000        1.894730        0.103082
       3      -2      -7        0.000000        1.972308        0.090820
      -3       2       7        0.000000        1.835756        0.092196
      -3       2       7        0.000000        1.992486        0.173145
       3       2      -7        0.000000        1.870829        0.138778
       3       2      -7        0.000000        1.969772        0.061893
       2      -2      -7        0.000000        0.264575        0.264575
      -2      -2       7        0.000000        0.400000        0.226795
      -2      -2       7        0.000000        0.173205        0.173205
      -2      -2       7        0.000000        0.424264        0.141421
      -2       2       7        0.000000        0.100000        0.216228
      -2       2       7        0.000000        0.387298        0.104456
       2       2      -7        0.000000        0.447214        0.347214
       2       2      -7        0.000000        0.331662        0.231662
       1      -2      -7        0.000000        2.286919        0.075585
      -1      -2       7        0.000000        2.256103        0.090462
      -1      -2       7        0.000000        2.206808        0.062047
      -1      -2       7        0.000000        2.165641        0.065641
      -1       2       7        0.000000        2.336664        0.051932
      -1       2       7        0.000000        2.351595        0.060307
       1       2      -7        0.000000        2.289105        0.086833
       1       2      -7        0.000000        2.347339        0.062607
      -1       2       7        0.000000        2.393742        0.082898
       0      -2      -7        0.000000        2.416609        0.056524
       0      -2       7        0.000000        2.202272        0.064516
       0      -2      -7        0.000000        2.282542        0.073470
       0      -2       7        0.000000        2.418677        0.086297
       0       2       7        0.000000        2.264950        0.064950
       0       2       7        0.000000        2.343075        0.053970
       0       2      -7        0.000000        1.977372        0.101206
       0       2      -7        0.000000        2.227106        0.066087
      -1      -2      -7        0.000000        9.417006        0.193666
      -1      -2      -7        0.000000        9.526804        0.193530
       1      -2       7        0.000000        9.849873        0.192234
      -1      -2      -7        0.000000        9.501579        0.192444
       1      -2       7        0.000000        9.345587        0.196270
      -1       2      -7        0.000000        9.648834        0.188919
      -2      -2      -7        0.000000        3.111270        0.096307
       2      -2       7        0.000000        2.930870        0.081309
      -2      -2      -7        0.000000        2.986637        0.083191
       2      -2       7        0.000000        3.217142        0.109088
      -2      -2      -7        0.000000        2.947881        0.084316
      -2       2      -7        0.000000        3.059412        0.108141
      -2       2      -7        0.000000        3.014963        0.080683
       2       2       7        0.000000        3.062679        0.087784
      -3      -2      -7        0.000000        0.741620        0.141620
       3      -2       7        0.000000        0.678233        0.139717
      -3      -2      -7        0.000000        0.866025        0.131178
      -3      -2      -7        0.000000        0.830662        0.311047
      -3       2      -7        0.000000        0.830662        0.123556
      -3       2      -7        0.000000        0.692820        0.409978
      -4      -2      -7        0.000000        0.894427        0.166416
      -4      -2      -7        0.000000        0.685565        0.685565
      -4      -2      -7        0.000000        1.072381        0.145019
       4      -2       7        0.000000        0.953939        0.141535
      -4       2      -7        0.000000        0.866025        0.866025
      -4       2      -7        0.000000        0.818535        0.186080
      -5      -2      -7        0.000000        2.370654        0.141304
      -5      -2      -7        0.000000        2.267157        0.141128
      -5      -3       7        0.000000        2.877499        0.164567
      -5       3       7        0.000000        3.417601        0.266411
      -4      -3       7        0.000000        2.319483        0.144626
      -4      -3       7        0.000000        2.385372        0.113809
      -4       3       7        0.000000        2.638181        0.231939
       4       3      -7        0.000000        2.493993        0.224632
      -3      -3       7        0.000000        0.489898        0.225323
       3      -3      -7        0.000000        0.374166        0.374166
       3       3      -7        0.000000        0.200000        0.534847
      -3       3       7        0.000000        0.663325        0.134175
      -2      -3       7        0.000000        1.726268        0.073996
       2      -3      -7        0.000000        1.720465        0.065171
      -2      -3       7        0.000000        1.634013        0.065575
      -2      -3       7        0.000000        1.746425        0.100217
      -2      -3       7        0.000000        1.752142        0.084808
      -2       3       7        0.000000        1.827567        0.142337
      -2       3       7        0.000000        1.627882        0.075465
      -2       3       7        0.000000        1.705872        0.056630
       2       3      -7        0.000000        2.088061        0.211895
      -1      -3       7        0.000000        4.659399        0.101988
      -1      -3       7        0.000000        4.728636        0.101542
       1      -3      -7        0.000000        4.633573        0.101465
       1      -3      -7        0.000000        4.593474        0.111287
       1      -3      -7        0.000000        4.590207        0.112484
      -1       3       7        0.000000        4.757100        0.114902
       0      -3       7        0.000000        5.396295        0.115197
       0      -3      -7        0.000000        5.363767        0.122584
       0      -3      -7        0.000000        5.343220        0.116366
       0       3       7        0.000000        5.435071        0.109661
       0       3       7        0.000000        5.519058        0.107034
       0       3      -7        0.000000        5.110773        0.152951
       1      -3       7        0.000000        4.064480        0.095853
      -1      -3      -7        0.000000        4.165333        0.098393
      -1      -3      -7        0.000000        3.997499        0.093655
      -1      -3      -7        0.000000        4.176123        0.090783
      -2      -3      -7        0.000000        1.462874        0.080846
       2      -3       7        0.000000        1.435270        0.078804
      -2      -3      -7        0.000000        1.466288        0.139638
      -2      -3      -7        0.000000        1.417745        0.087331
      -2      -3      -7        0.000000        1.466288        0.084260
      -2       3      -7        0.000000        1.496663        0.129184
       2       3       7        0.000000        1.424781        0.105690
      -3      -3      -7        0.000000        2.295648        0.097922
       3      -3       7        0.000000        2.435159        0.085691
      -3      -3      -7        0.000000        2.395830        0.091486
      -3       3      -7        0.000000        2.304344        0.161915
      -4      -3      -7        0.000000        1.272792        0.137011
      -4      -3      -7        0.000000        1.100000        0.287596
       4      -3       7        0.000000        0.916515        0.181668
      -4       3      -7        0.000000        0.692820        0.692820
      -5      -3      -7        0.000000        2.451530        0.162426
      -5      -3      -7        0.000000        2.323790        0.151234
      -5      -4       7        0.000000        1.126943        0.339542
      -5       4       7        0.000000        1.148913        0.975707
      -4      -4       7        0.000000        3.283291        0.125760
      -4      -4       7        0.000000        3.419064        0.114522
       4       4      -7        0.000000        3.096773        0.264812
      -4       4       7        0.000000        3.159114        0.211233
      -3      -4       7        0.000000        2.240536        0.119215
      -3      -4       7        0.000000        2.076054        0.098682
      -3      -4       7        0.000000        2.229350        0.089256
       3      -4      -7        0.000000        2.181742        0.079363
      -3       4       7        0.000000        1.982423        0.230281
       3       4      -7        0.000000        1.936492        0.263172
      -2      -4       7        0.000000        3.433657        0.085523
       2      -4      -7        0.000000        3.141656        0.087151
      -2      -4       7        0.000000        3.271085        0.094609
      -2      -4       7        0.000000        3.342155        0.080254
      -2       4       7        0.000000        3.321144        0.135238
       2       4      -7        0.000000        2.805352        0.201509
      -1      -4       7        0.000000        3.077337        0.075670
       1       4      -7        0.000000        2.776689        0.174766
      -1       4       7        0.000000        2.628688        0.112739
       0      -4      -7        0.000000        2.343075        0.075918
       0      -4       7        0.000000        2.297825        0.075214
       0      -4      -7        0.000000        2.302173        0.095365
       0       4       7        0.000000        2.340940        0.056208
       0       4      -7        0.000000        2.381176        0.188005
      -1      -4      -7        0.000000        1.545962        0.100279
       1      -4       7        0.000000        1.658312        0.080339
      -1      -4      -7        0.000000        1.627882        0.069036
      -1      -4      -7        0.000000        1.646208        0.068234
      -2      -4      -7        0.000000        3.133688        0.090663
      -2      -4      -7        0.000000        2.889637        0.089637
      -2      -4      -7        0.000000        3.038092        0.088515
       2      -4       7        0.000000        2.964793        0.089033
      -2      -4      -7        0.000000        2.868798        0.224937
       2       4       7        0.000000        2.929164        0.086630
      -2       4      -7        0.000000        3.019934        0.118210
       3      -4       7        0.000000        1.378405        0.109547
      -3      -4      -7        0.000000        1.039230        0.150411
      -3      -4      -7        0.000000        1.095445        0.131080
      -3       4      -7        0.000000        0.608276        0.608276
      -4      -4      -7        0.000000        4.233202        0.124674
      -4      -4      -7        0.000000        4.195235        0.128296
       4      -4       7        0.000000        4.284857        0.113526
      -5      -4      -7        0.000000        1.984943        0.171108
      -5      -4      -7        0.000000        1.873499        0.179392
      -5       4      -7        0.000000        0.921954        0.921954
      -5      -5       7        0.000000        0.458258        0.609450
      -5       5       7        0.000000        1.303840        0.972178
      -4      -5       7        0.000000        0.836660        0.346762
      -4      -5       7        0.000000        0.728011        0.381601
      -3      -5       7        0.000000        5.660389        0.125048
      -3      -5       7        0.000000        5.431390        0.128561
      -3      -5       7        0.000000        5.685068        0.135293
       3      -5      -7        0.000000        5.584801        0.122201
       3       5      -7        0.000000        5.364699        0.219799
      -2      -5       7        0.000000        0.591608        0.204310
       2      -5      -7        0.000000        0.556776        0.196221
      -2      -5       7        0.000000        0.670820        0.141670
      -2       5       7        0.000000        0.300000        0.448331
       2       5      -7        0.000000        0.948683        0.536373
      -1      -5       7        0.000000        2.634388        0.080959
       1      -5      -7        0.000000        2.622975        0.083290
      -1      -5       7        0.000000        2.632489        0.082980
       1       5      -7        0.000000        2.242766        0.210526
       0      -5      -7        0.000000        2.842534        0.105748
       0      -5      -7        0.000000        2.944486        0.087915
       0      -5       7        0.000000        3.064311        0.086056
      -1      -5      -7        0.000000        2.372762        0.083657
      -1      -5      -7        0.000000        2.402082        0.076142
       1      -5       7        0.000000        2.426932        0.083857
      -1      -5      -7        0.000000        2.443358        0.104555
      -2      -5      -7        0.000000        1.303840        0.108014
      -2      -5      -7        0.000000        1.330413        0.097531
       2      -5       7        0.000000        1.374773        0.101981
      -2      -5      -7        0.000000        1.307670        0.107670
      -2       5      -7        0.000000        1.396424        0.163541
      -3      -5      -7        0.000000        4.387482        0.114310
       3      -5       7        0.000000        4.268489        0.113974
      -3      -5      -7        0.000000        4.298837        0.116732
      -3       5      -7        0.000000        4.273172        0.162211
      -4      -5      -7        0.000000        2.523886        0.134325
      -4      -5      -7        0.000000        2.449490        0.136483
      -5      -5      -7        0.000000        2.422808        0.264105
      -4      -6       7        0.000000        1.824829        0.154499
      -4      -6       7        0.000000        1.549193        0.200120
      -4       6       7        0.000000        0.141421        0.976613
      -3      -6       7        0.000000        1.452584        0.141096
       3      -6      -7        0.000000        1.539480        0.114700
      -3      -6       7        0.000000        1.618641        0.121978
      -3      -6       7        0.000000        1.587451        0.176777
       3       6      -7        0.000000        1.311488        0.633255
      -2      -6       7        0.000000        0.200000        0.247214
      -2      -6       7        0.000000        0.374166        0.374166
       1      -6      -7        0.000000        4.758151        0.112723
      -1      -6       7        0.000000        4.666905        0.114982
      -1      -6       7        0.000000        4.577117        0.113934
       0      -6       7        0.000000        3.641428        0.090372
       0      -6      -7        0.000000        3.590265        0.123277
       0      -6      -7        0.000000        3.681032        0.101926
       0      -6       7        0.000000        3.762978        0.101011
      -1      -6      -7        0.000000        2.104757        0.102258
       1      -6       7        0.000000        1.946792        0.105597
      -1      -6      -7        0.000000        2.059126        0.125218
      -2      -6      -7        0.000000        3.914077        0.104878
       2      -6       7        0.000000        3.930649        0.109654
      -2      -6      -7        0.000000        3.850974        0.114666
      -2      -6      -7        0.000000        3.869108        0.102147
      -2       6      -7        0.000000        3.790778        0.139751
       3      -6       7        0.000000        1.276715        0.154217
      -3      -6      -7        0.000000        1.232883        0.160502
      -3      -6      -7        0.000000        1.296148        0.160366
      -3       6      -7        0.000000        1.352775        0.271110
      -4      -6      -7        0.000000        1.516575        0.205087
      -4      -6      -7        0.000000        1.536229        0.183454
      -4      -7       7        0.000000        1.174734        0.326206
       3      -7      -7        0.000000        3.261901        0.141004
      -3      -7       7        0.000000        3.275668        0.110230
      -3      -7       7        0.000000        3.268027        0.139129
      -3      -7       7        0.000000        3.349627        0.124724
      -2      -7       7        0.000000        2.570992        0.125588
      -2      -7       7        0.000000        2.561250        0.115846
       1      -7      -7        0.000000        0.974679        0.156144
      -1      -7       7        0.000000        0.655744        0.255744
      -1      -7       7        0.000000        0.877496        0.163354
      -1       7       7        0.000000        0.509902        0.509902
       0      -7       7        0.000000        3.103224        0.093241
       0      -7      -7        0.000000        3.038092        0.138092
       0      -7      -7        0.000000        3.082207        0.105632
       0      -7       7        0.000000        3.138471        0.103673
      -1      -7      -7        0.000000        5.102940        0.130014
      -1      -7      -7        0.000000        5.139066        0.115123
       1      -7       7        0.000000        5.158488        0.126590
      -1      -7      -7        0.000000        5.132251        0.141259
       2      -7       7        0.000000        1.860108        0.125172
      -2      -7      -7        0.000000        1.822087        0.139826
      -2      -7      -7        0.000000        1.802776        0.114581
      -2      -7      -7        0.000000        1.700000        0.141154
      -2       7      -7        0.000000        1.994994        0.194994
      -3      -7      -7        0.000000        0.938083        0.230976
      -3      -7      -7        0.000000        0.994987        0.226873
       3      -7       7        0.000000        0.806226        0.316328
      -3       7      -7        0.000000        0.583095        0.583095
      -4      -7      -7        0.000000        1.431782        0.231782
      -4      -7      -7        0.000000        1.417745        0.247275
      -4       7      -7        0.000000        0.632456        0.655954
      -4       8       7        0.000000        0.812404        0.812404
       3      -8      -7        0.000000        1.811077        0.239454
      -3      -8       7        0.000000        1.962142        0.145551
      -3      -8       7        0.000000        2.054264        0.170119
      -3      -8       7        0.000000        1.982423        0.146667
      -3       8       7        0.000000        0.489898        0.718407
      -2      -8       7        0.000000        3.850974        0.133448
      -2      -8       7        0.000000        4.032369        0.122126
       2      -8      -7        0.000000        3.882010        0.128345
      -2      -8       7        0.000000        3.813135        0.111784
       1      -8      -7        0.000000        0.932738        0.204727
       0      -8      -7        0.000000        1.682260        0.178931
       0      -8      -7        0.000000        1.523155        0.137514
       0      -8       7        0.000000        1.414214        0.173246
       0      -8       7        0.000000        1.476482        0.120016
      -1      -8      -7        0.000000        1.612452        0.259677
       1      -8       7        0.000000        1.462874        0.159033
      -1      -8      -7        0.000000        1.396424        0.151434
      -1       8      -7        0.000000        1.264911        0.254961
       2      -8       7        0.000000        2.387467        0.138023
      -2      -8      -7        0.000000        2.574879        0.162411
      -2      -8      -7        0.000000        2.247221        0.121191
      -2      -8      -7        0.000000        2.293469        0.127828
      -2       8      -7        0.000000        2.703701        0.203701
      -3      -8      -7        0.000000        0.264575        0.477045
      -3       8      -7        0.000000        1.039230        0.692820
      -3      -9       7        0.000000        2.738613        0.171513
      -3      -9       7        0.000000        2.592296        0.186054
       3      -9      -7        0.000000        2.867054        0.215640
      -3      -9       7        0.000000        2.745906        0.145906
      -2      -9       7        0.000000        0.458258        0.458258
      -2      -9       7        0.000000        0.529150        0.529150
       2      -9      -7        0.000000        0.435890        0.435890
      -2      -9       7        0.000000        0.282843        0.458777
      -1      -9       7        0.000000        3.746999        0.130371
      -1      -9       7        0.000000        3.559494        0.133126
       1      -9      -7        0.000000        3.333167        0.186740
       1      -9      -7        0.000000        3.648287        0.132608
       0      -9      -7        0.000000        3.458323        0.168946
       0      -9      -7        0.000000        3.442383        0.133304
       0      -9       7        0.000000        3.187475        0.139525
      -1      -9      -7        0.000000        0.806226        0.523383
      -2      -9      -7        0.000000        0.648074        0.648074
      -2      -9      -7        0.000000        0.927362        0.264037
       2      -9       7        0.000000        0.959166        0.295841
      -2       9      -7        0.000000        0.900000        0.900000
       3      -9       7        0.000000        1.783255        0.224410
      -3       9      -7        0.000000        1.493318        0.656658
       2     -10      -7        0.000000        2.037155        0.204125
      -2     -10       7        0.000000        1.737815        0.221240
      -2     -10       7        0.000000        1.749286        0.190440
       1     -10      -7        0.000000        3.324154        0.157137
       1     -10      -7        0.000000        3.383785        0.215189
      -1     -10       7        0.000000        2.973214        0.175000
       0     -10       7        0.000000        1.846619        0.203451
       0     -10      -7        0.000000        1.824829        0.240531
       0     -10      -7        0.000000        1.700000        0.203337
       1     -10       7        0.000000        0.583095        0.583095
      -1      10      -7        0.000000        1.212436        0.491325
       2     -10       7        0.000000        0.900000        0.475736
      -2      10      -7        0.000000        1.232883        0.858717
      -5       0       8        0.000000        0.734847        0.511240
      -4       0       8        0.000000        1.371131        0.134199
      -4       0       8        0.000000        1.183216        0.129651
       3       0      -8        0.000000        0.223607        0.255976
      -2       0       8        0.000000        2.673948        0.060522
       2       0      -8        0.000000        2.628688        0.077218
      -2       0       8        0.000000        2.619160        0.075541
       2       0      -8        0.000000        2.634388        0.061452
       1       0      -8        0.000000        0.141421        0.190241
      -1       0       8        0.000000        0.282843        0.282843
       1       0      -8        0.000000        0.264575        0.264575
      -1       0       8        0.000000        0.100000        0.123607
       0       0       8        0.000000        4.394315        0.094315
       0       0      -8        0.000000        3.937004        0.104250
       0       0      -8        0.000000        4.315090        0.086615
       0       0       8        0.000000        4.402272        0.084866
      -1       0      -8        0.000000        0.223607        0.223607
      -1       0      -8        0.000000        0.223607        0.223607
      -2       0      -8        0.000000        5.566866        0.124440
      -2       0      -8        0.000000        5.610704        0.121624
       2       0       8        0.000000        5.649779        0.120764
       2       0       8        0.000000        5.705261        0.122251
      -2       0      -8        0.000000        5.779273        0.133036
      -3       0      -8        0.000000        0.489898        0.489898
      -3       0      -8        0.000000        0.141421        0.219134
      -4       0      -8        0.000000        2.463737        0.107893
      -4       0      -8        0.000000        2.475884        0.101015
       4       0       8        0.000000        2.515949        0.099340
      -5      -1       8        0.000000        0.000000        0.685565
      -4      -1       8        0.000000        0.100000        0.400000
      -4       1       8        0.000000        0.100000        0.648331
       3      -1      -8        0.000000        0.000000        0.387298
      -3       1       8        0.000000        0.412311        0.412311
      -3       1       8        0.000000        0.387298        0.387298
       2      -1      -8        0.000000        0.932738        0.084210
       2      -1      -8        0.000000        0.974679        0.063636
      -2      -1       8        0.000000        0.888819        0.046204
      -2      -1       8        0.000000        1.004988        0.056304
       2       1      -8        0.000000        1.048809        0.105411
       2       1      -8        0.000000        0.921954        0.050175
      -2       1       8        0.000000        0.900000        0.081465
      -2       1       8        0.000000        1.058301        0.130939
       1      -1      -8        0.000000        4.084116        0.092875
       1      -1      -8        0.000000        4.118252        0.103280
      -1      -1       8        0.000000        4.058325        0.093479
      -1      -1       8        0.000000        4.097560        0.080098
      -1      -1       8        0.000000        4.028647        0.086567
       1       1      -8        0.000000        3.940812        0.087242
      -1       1       8        0.000000        4.080441        0.085444
      -1       1       8        0.000000        3.986226        0.095211
       1       1      -8        0.000000        3.993745        0.098877
       0      -1       8        0.000000        0.806226        0.106226
       0      -1       8        0.000000        0.685565        0.061066
       0      -1      -8        0.000000        0.860233        0.079208
       0      -1      -8        0.000000        0.787401        0.045781
       0      -1       8        0.000000        0.728011        0.049778
       0       1       8        0.000000        0.905539        0.080917
       0       1      -8        0.000000        0.714143        0.066069
       0       1      -8        0.000000        0.774597        0.103776
       1      -1       8        0.000000        7.544534        0.145210
      -1      -1      -8        0.000000        7.207635        0.147890
      -1      -1      -8        0.000000        7.109149        0.149264
       1      -1       8        0.000000        7.104224        0.148651
      -1      -1      -8        0.000000        7.042017        0.149267
      -1       1      -8        0.000000        7.041307        0.149282
       1       1       8        0.000000        7.251207        0.147687
      -2      -1      -8        0.000000        4.742362        0.108789
      -2      -1      -8        0.000000        4.738143        0.106729
       2      -1       8        0.000000        4.688283        0.106799
       2      -1       8        0.000000        4.876474        0.110973
       2       1       8        0.000000        4.841487        0.108624
      -2       1      -8        0.000000        4.724405        0.108129
       3      -1       8        0.000000        3.395585        0.084996
      -3      -1      -8        0.000000        3.339162        0.092625
      -3      -1      -8        0.000000        3.085450        0.149466
      -3      -1      -8        0.000000        3.241913        0.097076
      -3       1      -8        0.000000        3.318132        0.093229
      -4      -1      -8        0.000000        1.363818        0.130935
      -4      -1      -8        0.000000        1.367479        0.118480
       4      -1       8        0.000000        1.568439        0.098745
      -4       1      -8        0.000000        1.374773        0.125773
       4       1       8        0.000000        1.407125        0.110977
      -5      -1      -8        0.000000        1.486607        0.178937
      -5      -1      -8        0.000000        1.606238        0.167488
      -5      -1      -8        0.000000        1.841195        0.385173
      -5       1      -8        0.000000        1.685230        0.155524
      -5       1      -8        0.000000        0.500000        0.708305
      -5      -2       8        0.000000        0.685565        0.685565
      -5       2       8        0.000000        1.058301        0.245897
      -5       2       8        0.000000        0.734847        0.734847
      -4      -2       8        0.000000        1.009950        0.203725
      -4      -2       8        0.000000        1.272792        0.119536
      -4       2       8        0.000000        1.063015        0.399690
       4       2      -8        0.000000        0.685565        0.685565
      -4       2       8        0.000000        1.126943        0.136993
       3      -2      -8        0.000000        0.547723        0.187167
      -3      -2       8        0.000000        0.282843        0.282843
      -3       2       8        0.000000        0.469042        0.469042
      -3       2       8        0.000000        0.447214        0.305792
       2      -2      -8        0.000000        0.836660        0.101813
      -2      -2       8        0.000000        0.793725        0.093725
      -2      -2       8        0.000000        0.768115        0.104790
      -2      -2       8        0.000000        0.818535        0.070204
      -2      -2       8        0.000000        0.754983        0.069418
      -2       2       8        0.000000        0.714143        0.066069
      -2       2       8        0.000000        1.126943        0.162578
      -2       2       8        0.000000        0.768115        0.082549
       2       2      -8        0.000000        0.938083        0.077851
       2       2      -8        0.000000        0.866025        0.158919
       1      -2      -8        0.000000        2.473863        0.078034
      -1      -2       8        0.000000        2.389561        0.065771
       1      -2      -8        0.000000        2.527845        0.094740
      -1      -2       8        0.000000        2.628688        0.085068
      -1       2       8        0.000000        2.459675        0.084806
       1       2      -8        0.000000        2.495997        0.067005
       1       2      -8        0.000000        2.467793        0.092924
      -1       2       8        0.000000        2.467793        0.065710
      -1       2       8        0.000000        2.489980        0.056875
       0      -2      -8        0.000000        8.354041        0.166856
       0      -2       8        0.000000        8.389875        0.166737
       0      -2       8        0.000000        8.378544        0.164532
       0      -2       8        0.000000        8.386895        0.174708
       0      -2      -8        0.000000        8.302409        0.171604
       0       2       8        0.000000        7.849204        0.181740
       0       2       8        0.000000        8.124038        0.171680
       0       2      -8        0.000000        8.628441        0.171492
       0       2       8        0.000000        8.329466        0.164908
      -1      -2      -8        0.000000        7.543872        0.155367
      -1      -2      -8        0.000000        7.769170        0.152084
       1      -2       8        0.000000        7.634789        0.155484
      -1      -2      -8        0.000000        7.666812        0.156153
      -1       2      -8        0.000000        7.632169        0.154201
      -1       2      -8        0.000000        7.400000        0.175043
      -2      -2      -8        0.000000        4.016217        0.095758
      -2      -2      -8        0.000000        4.177320        0.105465
      -2      -2      -8        0.000000        4.003748        0.087117
      -2      -2      -8        0.000000        3.926831        0.099299
      -2       2      -8        0.000000        4.054627        0.115084
      -2       2      -8        0.000000        3.974921        0.095488
      -3      -2      -8        0.000000        0.374166        0.374166
      -3       2      -8        0.000000        0.435890        0.335890
      -4      -2      -8        0.000000        1.808314        0.140981
      -4      -2      -8        0.000000        2.024846        0.224846
       4      -2       8        0.000000        1.862794        0.102112
      -4      -2      -8        0.000000        1.835756        0.118200
       4       2       8        0.000000        1.740690        0.109739
      -4       2      -8        0.000000        1.881489        0.117970
      -5      -2      -8        0.000000        1.536229        0.172411
      -5      -2      -8        0.000000        1.760682        0.160682
      -5       2      -8        0.000000        0.984886        0.984886
      -5       2      -8        0.000000        1.435270        0.166412
      -5      -3       8        0.000000        2.437212        0.161250
      -5       3       8        0.000000        2.319483        0.329508
      -4      -3       8        0.000000        1.723369        0.117131
      -4       3       8        0.000000        1.496663        0.114635
       4       3      -8        0.000000        1.326650        0.426650
      -4       3       8        0.000000        1.489966        0.480016
      -3      -3       8        0.000000        1.772005        0.086775
      -3      -3       8        0.000000        1.714643        0.105295
       3       3      -8        0.000000        2.080865        0.167753
      -3       3       8        0.000000        1.593738        0.233591
      -3       3       8        0.000000        1.634013        0.094533
      -2      -3       8        0.000000        0.916515        0.085853
      -2      -3       8        0.000000        0.842615        0.081038
      -2      -3       8        0.000000        0.894427        0.107026
       2      -3      -8        0.000000        0.974679        0.120279
      -2      -3       8        0.000000        1.153256        0.128561
       2       3      -8        0.000000        1.024695        0.182080
      -2       3       8        0.000000        0.900000        0.244256
      -2       3       8        0.000000        0.927362        0.084747
      -2       3       8        0.000000        0.860233        0.066507
       1      -3      -8        0.000000        3.661967        0.096858
       1      -3      -8        0.000000        3.511410        0.098200
       1      -3      -8        0.000000        3.691883        0.084945
      -1      -3       8        0.000000        3.515679        0.087852
      -1      -3       8        0.000000        3.587478        0.086050
      -1       3       8        0.000000        3.778889        0.097856
       0      -3       8        0.000000        9.121403        0.183283
       0      -3      -8        0.000000        9.317725        0.183723
       0       3       8        0.000000        9.405849        0.174381
       0       3      -8        0.000000        8.380931        0.218211
      -1      -3      -8        0.000000        3.394113        0.083523
      -1      -3      -8        0.000000        3.479943        0.091728
      -1       3      -8        0.000000        3.678315        0.137129
      -2      -3      -8        0.000000        0.916515        0.097980
      -2      -3      -8        0.000000        0.871780        0.103665
      -2      -3      -8        0.000000        0.953939        0.093707
      -2      -3      -8        0.000000        0.458258        0.458258
       2      -3       8        0.000000        0.979796        0.085369
      -2       3      -8        0.000000        0.943398        0.168801
      -3      -3      -8        0.000000        2.051828        0.097346
       3      -3       8        0.000000        1.972308        0.088164
      -3      -3      -8        0.000000        1.944222        0.108466
      -3       3      -8        0.000000        2.022375        0.183897
      -4      -3      -8        0.000000        1.034408        0.174176
       4      -3       8        0.000000        1.131371        0.156691
      -4      -3      -8        0.000000        0.979796        0.179796
      -4       3      -8        0.000000        0.173205        0.726795
      -5      -3      -8        0.000000        1.292285        0.219904
      -5      -3      -8        0.000000        1.284523        0.212143
      -5      -4       8        0.000000        0.721110        0.721110
      -5       4       8        0.000000        0.888819        0.888819
      -4      -4       8        0.000000        2.368544        0.139194
      -4      -4       8        0.000000        2.297825        0.120671
      -4       4       8        0.000000        2.338803        0.269987
       4       4      -8        0.000000        1.974842        0.377970
      -3      -4       8        0.000000        2.163331        0.094515
       3      -4      -8        0.000000        2.236068        0.121831
      -3      -4       8        0.000000        2.295648        0.111615
      -3      -4       8        0.000000        2.271563        0.087530
       3       4      -8        0.000000        2.056696        0.256696
      -3       4       8        0.000000        2.200000        0.197502
      -2      -4       8        0.000000        3.255764        0.093486
      -2      -4       8        0.000000        3.284814        0.086376
       2      -4      -8        0.000000        3.217142        0.083454
      -2      -4       8        0.000000        3.193744        0.082474
       2       4      -8        0.000000        2.958040        0.188563
      -2       4       8        0.000000        3.252691        0.138209
       1      -4      -8        0.000000        5.475400        0.121896
      -1      -4       8        0.000000        5.650664        0.114419
       1      -4      -8        0.000000        5.388877        0.129600
       1       4      -8        0.000000        5.017968        0.173383
       0      -4       8        0.000000        0.964365        0.086869
       0      -4      -8        0.000000        0.938083        0.089555
       0      -4      -8        0.000000        0.948683        0.118021
       0       4       8        0.000000        0.900000        0.057385
       0       4       8        0.000000        0.984886        0.084886
       0       4      -8        0.000000        0.685565        0.685565
       1      -4       8        0.000000        1.749286        0.081952
      -1      -4      -8        0.000000        1.894730        0.091954
      -1      -4      -8        0.000000        1.688194        0.069553
      -1      -4      -8        0.000000        1.772005        0.066132
      -2      -4      -8        0.000000        0.670820        0.141670
       2      -4       8        0.000000        0.768115        0.127802
      -2      -4      -8        0.000000        0.678233        0.121457
      -2       4      -8        0.000000        0.721110        0.241527
       3      -4       8        0.000000        0.608276        0.208276
      -3      -4      -8        0.000000        0.529150        0.284201
      -3       4      -8        0.000000        0.787401        0.363137
      -4      -4      -8        0.000000        1.183216        0.163412
      -4      -4      -8        0.000000        1.268858        0.177987
       4      -4       8        0.000000        1.216553        0.153538
      -5       4      -8        0.000000        0.316228        0.858506
      -5       5       8        0.000000        1.058301        1.058301
      -4      -5       8        0.000000        0.894427        0.302819
      -4      -5       8        0.000000        0.707107        0.483500
       4       5      -8        0.000000        1.500000        0.725403
       3      -5      -8        0.000000        1.606238        0.096271
       3      -5      -8        0.000000        1.670329        0.147175
      -3      -5       8        0.000000        1.670329        0.108279
      -3      -5       8        0.000000        1.746425        0.127784
      -3      -5       8        0.000000        1.596872        0.110265
       3       5      -8        0.000000        1.072381        0.789538
      -3       5       8        0.000000        1.445683        0.323186
      -2      -5       8        0.000000        6.024948        0.124101
       2      -5      -8        0.000000        5.976621        0.127690
      -2      -5       8        0.000000        6.071244        0.128181
      -2      -5       8        0.000000        5.955670        0.133299
       2       5      -8        0.000000        5.777543        0.202599
      -2       5       8        0.000000        5.461685        0.169237
      -1      -5       8        0.000000        1.113553        0.098664
      -1      -5       8        0.000000        1.081665        0.096780
       1      -5      -8        0.000000        1.204159        0.095106
      -1       5       8        0.000000        0.824621        0.224621
       1       5      -8        0.000000        1.428286        0.257816
       0      -5       8        0.000000        0.435890        0.212283
       0      -5      -8        0.000000        0.678233        0.178233
       0      -5      -8        0.000000        0.748331        0.131890
       0       5      -8        0.000000        0.818535        0.677114
       0       5       8        0.000000        0.316228        0.316228
      -1      -5      -8        0.000000        0.848528        0.155708
       1      -5       8        0.000000        0.616441        0.158184
      -1      -5      -8        0.000000        0.741620        0.109164
      -1      -5      -8        0.000000        0.768115        0.097294
      -2      -5      -8        0.000000        0.200000        0.279583
      -2      -5      -8        0.000000        0.547723        0.201312
      -2      -5      -8        0.000000        0.000000        0.412311
      -2       5      -8        0.000000        0.412311        0.412311
      -3      -5      -8        0.000000        2.435159        0.111369
       3      -5       8        0.000000        2.473863        0.101101
      -3      -5      -8        0.000000        2.302173        0.113566
      -3       5      -8        0.000000        2.385372        0.178564
      -4      -5      -8        0.000000        1.549193        0.170788
      -4      -5      -8        0.000000        1.539480        0.164708
      -4      -6       8        0.000000        1.846619        0.215668
      -4      -6       8        0.000000        1.726268        0.190039
      -4       6       8        0.000000        1.403567        0.641990
       3      -6      -8        0.000000        1.244990        0.131437
      -3      -6       8        0.000000        1.140175        0.145188
      -3      -6       8        0.000000        1.170470        0.160519
       3      -6      -8        0.000000        0.714143        0.431300
      -2      -6       8        0.000000        2.983287        0.097113
       2      -6      -8        0.000000        2.826659        0.095359
      -2      -6       8        0.000000        2.586503        0.120738
      -1      -6       8        0.000000        2.647640        0.096170
       1      -6      -8        0.000000        2.632489        0.094774
      -1      -6       8        0.000000        2.590367        0.092368
       0      -6      -8        0.000000        0.264575        0.318520
       0      -6      -8        0.000000        0.435890        0.435890
       0      -6       8        0.000000        0.173205        0.285052
       0       6       8        0.000000        0.200000        0.319615
       2      -6       8        0.000000        2.893095        0.100247
      -2      -6      -8        0.000000        2.807134        0.097890
      -2      -6      -8        0.000000        2.670206        0.116777
      -2      -6      -8        0.000000        2.814249        0.097634
      -2       6      -8        0.000000        2.849561        0.142164
       3      -6       8        0.000000        3.088689        0.108756
      -3      -6      -8        0.000000        2.744085        0.134487
      -3      -6      -8        0.000000        3.149603        0.109866
      -3       6      -8        0.000000        2.964793        0.186305
      -4      -6      -8        0.000000        1.496663        0.185175
      -4      -6      -8        0.000000        1.646208        0.173116
      -4       6      -8        0.000000        0.994987        0.994987
      -3      -7       8        0.000000        1.400000        0.183447
       3      -7      -8        0.000000        1.523155        0.254297
      -3      -7       8        0.000000        1.587451        0.124577
      -3      -7       8        0.000000        1.489966        0.170876
      -2      -7       8        0.000000        2.485961        0.125876
      -2      -7       8        0.000000        2.535744        0.121205
       2      -7      -8        0.000000        2.537716        0.110783
      -1      -7       8        0.000000        3.111270        0.107938
      -1      -7       8        0.000000        3.168596        0.102654
       1      -7      -8        0.000000        3.154362        0.104772
       1      -7      -8        0.000000        2.941088        0.141088
       0      -7       8        0.000000        2.457641        0.112433
       0      -7      -8        0.000000        2.727636        0.104661
       0      -7       8        0.000000        2.630589        0.092874
       0      -7      -8        0.000000        2.731300        0.135149
       1      -7       8        0.000000        1.752142        0.118128
      -1      -7      -8        0.000000        1.609348        0.143060
      -1      -7      -8        0.000000        1.661325        0.092886
      -2      -7      -8        0.000000        3.818377        0.123786
       2      -7       8        0.000000        3.616628        0.118057
      -2      -7      -8        0.000000        3.749667        0.110986
      -2       7      -8        0.000000        3.826225        0.150630
      -3      -7      -8        0.000000        1.676305        0.136825
       3      -7       8        0.000000        1.652271        0.152271
      -3      -7      -8        0.000000        1.574802        0.167677
      -3       7      -8        0.000000        1.646208        0.323332
      -4      -7      -8        0.000000        0.860233        0.447922
      -3      -8       8        0.000000        2.791057        0.132110
       3      -8      -8        0.000000        2.844293        0.190993
      -3      -8       8        0.000000        2.840775        0.159357
      -3      -8       8        0.000000        2.917190        0.154945
       2      -8      -8        0.000000        2.061553        0.177408
      -2      -8       8        0.000000        1.862794        0.156921
       2      -8      -8        0.000000        1.987461        0.130043
      -1      -8       8        0.000000        1.994994        0.159238
      -1      -8       8        0.000000        2.256103        0.123030
       1      -8      -8        0.000000        2.258318        0.129938
       1      -8      -8        0.000000        2.229350        0.165373
       0      -8      -8        0.000000        2.979933        0.153274
       0      -8      -8        0.000000        3.003331        0.136277
       0      -8       8        0.000000        2.837252        0.105952
       1      -8       8        0.000000        6.272958        0.149233
      -1      -8      -8        0.000000        6.167658        0.165158
      -1       8      -8        0.000000        6.347440        0.168444
      -2      -8      -8        0.000000        2.666458        0.113029
      -2      -8      -8        0.000000        2.433105        0.126592
       2      -8       8        0.000000        2.481935        0.136727
      -2       8      -8        0.000000        2.501999        0.201999
      -3      -8      -8        0.000000        0.888819        0.323134
      -3      -9       8        0.000000        1.392839        0.243926
      -3      -9       8        0.000000        1.679286        0.223264
      -3      -9       8        0.000000        1.053565        0.461957
       3      -9      -8        0.000000        1.506652        0.336182
       2      -9      -8        0.000000        2.135416        0.160574
       2      -9      -8        0.000000        1.897367        0.260296
      -2      -9       8        0.000000        2.004994        0.180165
      -2      -9       8        0.000000        2.073644        0.129422
      -2      -9       8        0.000000        2.262742        0.165124
      -1      -9       8        0.000000        2.831960        0.137522
      -1      -9       8        0.000000        2.725803        0.145105
       1      -9      -8        0.000000        2.628688        0.214149
       1      -9      -8        0.000000        2.800000        0.152360
       0      -9       8        0.000000        1.252996        0.194696
       0      -9      -8        0.000000        0.984886        0.306653
       0      -9      -8        0.000000        1.552417        0.225768
       1      -9       8        0.000000        1.067708        0.249173
      -1      -9      -8        0.000000        1.100000        0.167262
      -1      -9      -8        0.000000        0.916515        0.396900
      -1       9      -8        0.000000        1.256981        0.356981
      -2      -9      -8        0.000000        1.417745        0.238762
       2      -9       8        0.000000        0.812404        0.451849
      -2      -9      -8        0.000000        1.208305        0.203317
      -2       9      -8        0.000000        1.549193        0.370211
      -3       9      -8        0.000000        0.871780        0.871780
      -2     -10       8        0.000000        0.768115        0.768115
       2     -10      -8        0.000000        1.493318        0.280883
      -2     -10       8        0.000000        1.072381        0.337534
       1     -10      -8        0.000000        1.363818        0.324588
       1     -10      -8        0.000000        1.077033        0.377033
      -1     -10       8        0.000000        1.063015        0.335004
       0     -10       8        0.000000        5.062608        0.149361
       0     -10      -8        0.000000        4.720169        0.188062
       0     -10      -8        0.000000        4.973932        0.152107
       0      10      -8        0.000000        5.011986        0.179802
      -1     -10      -8        0.000000        3.489986        0.189986
       1     -10       8        0.000000        3.229551        0.166872
      -1     -10      -8        0.000000        3.313608        0.135559
      -1      10      -8        0.000000        3.827532        0.210904
      -2      10      -8        0.000000        2.330236        0.327738
      -5       0       9        0.000000        1.737815        0.175765
      -4       0       9        0.000000        0.509902        0.509902
      -3       0       9        0.000000        5.286776        0.122475
       3       0      -9        0.000000        5.222069        0.123049
      -3       0       9        0.000000        5.380520        0.110796
      -1       0       9        0.000000       14.478950        0.279654
      -1       0       9        0.000000       14.109217        0.284963
       1       0      -9        0.000000       14.257980        0.284792
       0       0       9        0.000000        0.360555        0.160555
       0       0      -9        0.000000        0.282843        0.282843
       0       0      -9        0.000000        0.173205        0.173205
       0       0       9        0.000000        0.458258        0.058258
      -1       0      -9        0.000000        2.165641        0.077579
      -1       0      -9        0.000000        2.195450        0.062377
       1       0       9        0.000000        2.193171        0.081300
       2       0       9        0.000000        0.316228        0.316228
       2       0       9        0.000000        0.374166        0.174166
      -2       0      -9        0.000000        0.200000        0.258258
      -3       0      -9        0.000000        4.787484        0.116295
       3       0       9        0.000000        4.862098        0.110257
      -3       0      -9        0.000000        4.876474        0.112022
      -4       0      -9        0.000000        0.300000        0.300000
      -5       0      -9        0.000000        1.378405        0.591004
      -5       0      -9        0.000000        2.190890        0.148832
      -5      -1       9        0.000000        1.923538        0.165699
      -4      -1       9        0.000000        2.227106        0.101077
       4       1      -9        0.000000        2.012461        0.232012
      -3      -1       9        0.000000        1.260952        0.107696
       3      -1      -9        0.000000        1.562050        0.099176
      -3      -1       9        0.000000        1.493318        0.082645
      -3       1       9        0.000000        1.371131        0.094416
       3       1      -9        0.000000        1.389244        0.120387
      -3       1       9        0.000000        1.382027        0.169592
       2      -1      -9        0.000000        8.056054        0.161752
      -2      -1       9        0.000000        7.935364        0.158475
      -2      -1       9        0.000000        7.584853        0.170678
       2      -1      -9        0.000000        7.810250        0.161067
      -2      -1       9        0.000000        8.045496        0.154995
      -2      -1       9        0.000000        8.063498        0.157171
      -2       1       9        0.000000        7.919596        0.156220
      -2       1       9        0.000000        8.151687        0.171712
       2       1      -9        0.000000        7.786527        0.170097
      -2       1       9        0.000000        7.883527        0.156950
      -2       1       9        0.000000        7.943551        0.161520
      -1      -1       9        0.000000        3.807887        0.089016
      -1      -1       9        0.000000        3.764306        0.073778
       1      -1      -9        0.000000        3.726929        0.102015
       1      -1      -9        0.000000        3.713489        0.091335
      -1      -1       9        0.000000        3.655133        0.083019
       1       1      -9        0.000000        3.689173        0.097516
       1       1      -9        0.000000        3.655133        0.081620
      -1       1       9        0.000000        3.746999        0.091865
       0      -1      -9        0.000000        8.732125        0.178178
       0      -1      -9        0.000000        8.709191        0.173384
       0      -1       9        0.000000        8.789767        0.174083
       0      -1       9        0.000000        8.594766        0.182275
       0      -1       9        0.000000        8.988326        0.168462
       0       1       9        0.000000        8.777813        0.177232
       0       1      -9        0.000000        8.696551        0.173641
       0       1      -9        0.000000        8.547514        0.183903
       0       1      -9        0.000000        8.642916        0.176512
       1      -1       9        0.000000        2.640076        0.088606
       1      -1       9        0.000000        2.592296        0.070392
      -1      -1      -9        0.000000        2.673948        0.070105
      -1      -1      -9        0.000000        2.621068        0.075484
      -1      -1      -9        0.000000        2.545584        0.069701
      -1       1      -9        0.000000        2.621068        0.067639
       1       1       9        0.000000        2.640076        0.080779
      -2      -1      -9        0.000000        2.934280        0.075959
       2      -1       9        0.000000        2.578759        0.123154
      -2      -1      -9        0.000000        2.819574        0.080962
      -2       1      -9        0.000000        2.880972        0.077403
      -2       1      -9        0.000000        2.819574        0.102959
       3      -1       9        0.000000        0.469042        0.224093
      -3      -1      -9        0.000000        0.591608        0.167344
      -3      -1      -9        0.000000        0.489898        0.489898
      -3      -1      -9        0.000000        0.200000        0.269042
      -3       1      -9        0.000000        0.300000        0.300000
      -4      -1      -9        0.000000        3.008322        0.199407
       4      -1       9        0.000000        3.103224        0.104891
      -4      -1      -9        0.000000        3.057777        0.104812
      -4      -1      -9        0.000000        3.074085        0.107606
       4       1       9        0.000000        3.148015        0.100065
      -4       1      -9        0.000000        3.280244        0.103768
      -5      -1      -9        0.000000        1.077033        1.077033
      -5       1      -9        0.000000        0.854400        0.297624
      -5       1      -9        0.000000        0.316228        0.841356
      -5      -2       9        0.000000        3.152777        0.151110
      -4      -2       9        0.000000        3.238827        0.121135
      -4       2       9        0.000000        3.008322        0.186975
      -4       2       9        0.000000        3.189044        0.106837
       4       2      -9        0.000000        3.184337        0.162748
      -3      -2       9        0.000000        3.810512        0.088953
       3      -2      -9        0.000000        3.708099        0.099776
      -3      -2       9        0.000000        3.738984        0.104427
      -3       2       9        0.000000        3.898718        0.092144
       3       2      -9        0.000000        3.504283        0.124934
      -2      -2       9        0.000000        3.201562        0.090292
      -2      -2       9        0.000000        3.316625        0.076254
      -2      -2       9        0.000000        3.310589        0.076397
       2      -2      -9        0.000000        3.296968        0.079827
       2      -2      -9        0.000000        3.277194        0.092857
      -2      -2       9        0.000000        3.327161        0.083706
      -2       2       9        0.000000        3.327161        0.072933
       2       2      -9        0.000000        3.364521        0.104153
      -2       2       9        0.000000        3.352611        0.115328
       2       2      -9        0.000000        3.340659        0.077225
      -2       2       9        0.000000        3.293934        0.079902
      -1      -2       9        0.000000        4.615192        0.104095
       1      -2      -9        0.000000        4.796874        0.108591
       1      -2      -9        0.000000        4.785394        0.118490
       1       2      -9        0.000000        4.593474        0.120220
      -1       2       9        0.000000        4.811445        0.100818
       1       2      -9        0.000000        4.704253        0.103167
      -1       2       9        0.000000        4.905099        0.109268
       0      -2      -9        0.000000        2.733130        0.068548
       0      -2      -9        0.000000        2.547548        0.081782
       0      -2       9        0.000000        2.716616        0.068975
       0      -2       9        0.000000        2.601922        0.064207
       0      -2      -9        0.000000        2.584570        0.064649
       0       2       9        0.000000        2.645751        0.063117
       0       2      -9        0.000000        2.765863        0.093785
       1      -2       9        0.000000        0.728011        0.079937
      -1      -2      -9        0.000000        0.600000        0.080385
      -1      -2      -9        0.000000        0.608276        0.079126
      -1      -2      -9        0.000000        0.616441        0.106539
      -1       2      -9        0.000000        0.728011        0.280797
      -1       2      -9        0.000000        0.700000        0.067544
      -2      -2      -9        0.000000        1.029563        0.152067
       2      -2       9        0.000000        0.994987        0.094987
      -2      -2      -9        0.000000        1.216553        0.089610
      -2      -2      -9        0.000000        1.300000        0.071179
      -2      -2      -9        0.000000        1.208305        0.081362
      -2       2      -9        0.000000        1.187434        0.082898
      -2       2      -9        0.000000        1.292285        0.139029
      -3      -2      -9        0.000000        1.788854        0.094747
      -3      -2      -9        0.000000        1.769181        0.101847
       3      -2       9        0.000000        1.835756        0.097941
      -3       2      -9        0.000000        1.746425        0.094154
      -3       2      -9        0.000000        1.830301        0.175006
      -4      -2      -9        0.000000        0.624500        0.483078
      -4      -2      -9        0.000000        0.748331        0.748331
       4      -2       9        0.000000        0.734847        0.215232
      -4       2      -9        0.000000        0.469042        0.469042
       4       2       9        0.000000        0.692820        0.245607
      -4       2      -9        0.000000        0.489898        0.515090
      -5      -2      -9        0.000000        3.090307        0.139037
      -5      -2      -9        0.000000        3.176476        0.138385
      -5       2      -9        0.000000        2.826659        0.137793
      -4      -3       9        0.000000        3.807887        0.120069
      -4      -3       9        0.000000        4.378356        0.141612
       4       3      -9        0.000000        3.841875        0.229396
      -4       3       9        0.000000        4.495553        0.256450
      -4       3       9        0.000000        4.086563        0.107870
       3      -3      -9        0.000000        4.019950        0.109707
      -3      -3       9        0.000000        3.806573        0.097126
      -3      -3       9        0.000000        3.992493        0.111771
      -3      -3       9        0.000000        4.097560        0.096310
      -3       3       9        0.000000        3.902563        0.151563
      -3       3       9        0.000000        4.031129        0.095395
       3       3      -9        0.000000        4.474371        0.138475
      -2      -3       9        0.000000        2.463737        0.076270
      -2      -3       9        0.000000        2.473863        0.098995
      -2      -3       9        0.000000        2.338803        0.087137
      -2      -3       9        0.000000        2.433105        0.068787
      -2       3       9        0.000000        2.491987        0.121333
       2       3      -9        0.000000        2.647640        0.123755
      -2       3       9        0.000000        2.535744        0.063903
      -2       3       9        0.000000        2.416609        0.073534
       1      -3      -9        0.000000        3.532704        0.110717
      -1      -3       9        0.000000        3.778889        0.089715
      -1       3       9        0.000000        3.823611        0.102052
       1       3      -9        0.000000        4.058325        0.117513
      -1       3       9        0.000000        3.849675        0.076083
       0       3       9        0.000000        1.296148        0.059216
       1      -3       9        0.000000        2.672078        0.077853
      -1      -3      -9        0.000000        2.756810        0.090351
      -1      -3      -9        0.000000        2.694439        0.073370
      -1      -3      -9        0.000000        2.725803        0.070619
      -1       3      -9        0.000000        2.582634        0.155702
      -2      -3      -9        0.000000        0.616441        0.106539
      -2      -3      -9        0.000000        0.748331        0.115876
      -2      -3      -9        0.000000        0.640312        0.160729
       2      -3       9        0.000000        0.774597        0.111272
      -2       3      -9        0.000000        0.707107        0.207107
      -3      -3      -9        0.000000        0.984886        0.136358
       3      -3       9        0.000000        1.240967        0.109597
      -3      -3      -9        0.000000        1.135782        0.120893
      -3       3      -9        0.000000        1.232883        0.242933
      -4      -3      -9        0.000000        1.977372        0.125346
      -4      -3      -9        0.000000        2.039608        0.123883
       4      -3       9        0.000000        1.900000        0.116745
      -5      -3      -9        0.000000        1.396424        0.221690
      -5      -3      -9        0.000000        1.140175        0.245748
      -5       3      -9        0.000000        0.424264        0.775736
      -5      -4       9        0.000000        1.109054        0.321653
      -5       4       9        0.000000        1.378405        0.650394
      -4      -4       9        0.000000        0.685565        0.385565
      -4       4       9        0.000000        0.685565        0.685565
      -3      -4       9        0.000000        5.418487        0.116600
       3      -4      -9        0.000000        5.247857        0.132194
      -3      -4       9        0.000000        5.364699        0.128288
      -3      -4       9        0.000000        5.299057        0.117358
       3       4      -9        0.000000        4.618441        0.211628
      -3       4       9        0.000000        5.398148        0.162692
       2      -4      -9        0.000000        4.954796        0.110211
      -2      -4       9        0.000000        5.014978        0.110898
       2      -4      -9        0.000000        4.872371        0.125793
      -2      -4       9        0.000000        4.856954        0.118811
      -2       4       9        0.000000        5.040833        0.137773
       1      -4      -9        0.000000        0.842615        0.135508
      -1      -4       9        0.000000        0.877496        0.096471
      -1      -4       9        0.000000        0.905539        0.087003
      -1       4       9        0.000000        0.900000        0.171989
       1       4      -9        0.000000        0.748331        0.416669
       0      -4       9        0.000000        4.008740        0.095941
       0      -4      -9        0.000000        3.920459        0.108635
       0       4      -9        0.000000        3.728270        0.167372
       0       4       9        0.000000        4.119466        0.083379
      -1      -4      -9        0.000000        0.854400        0.092823
       1      -4       9        0.000000        0.888819        0.101419
      -1      -4      -9        0.000000        0.830662        0.075679
      -1      -4      -9        0.000000        0.921954        0.115729
      -2      -4      -9        0.000000        1.081665        0.101869
       2      -4       9        0.000000        0.916515        0.116515
      -2      -4      -9        0.000000        0.860233        0.132222
      -2      -4      -9        0.000000        0.905539        0.150555
      -2       4      -9        0.000000        1.095445        0.168083
      -3      -4      -9        0.000000        0.489898        0.489898
      -3      -4      -9        0.000000        0.509902        0.309902
       3      -4       9        0.000000        0.608276        0.247721
       4      -4       9        0.000000        1.473092        0.135183
      -4      -4      -9        0.000000        1.417745        0.172755
      -4      -4      -9        0.000000        1.621727        0.138488
      -5      -4      -9        0.000000        2.158703        0.166217
      -5      -4      -9        0.000000        2.345208        0.165758
      -5       5       9        0.000000        2.439262        0.557773
      -4      -5       9        0.000000        1.691153        0.171285
      -4       5       9        0.000000        1.977372        0.319060
       4       5      -9        0.000000        1.977372        0.480709
      -3      -5       9        0.000000        0.959166        0.191052
      -3      -5       9        0.000000        1.208305        0.122027
       3      -5      -9        0.000000        1.252996        0.166718
      -3      -5       9        0.000000        1.473092        0.112945
      -3       5       9        0.000000        1.090871        0.490871
       3       5      -9        0.000000        1.382027        0.487600
      -2      -5       9        0.000000        3.716181        0.098170
      -2      -5       9        0.000000        3.748333        0.104160
       2      -5      -9        0.000000        3.529873        0.122528
       2      -5      -9        0.000000        3.734970        0.094915
      -2      -5       9        0.000000        3.761649        0.090137
       2       5      -9        0.000000        3.367492        0.217888
      -2       5       9        0.000000        3.809199        0.143139
       1      -5      -9        0.000000        4.174925        0.103071
      -1      -5       9        0.000000        4.323193        0.100635
      -1      -5       9        0.000000        4.213075        0.103330
       1      -5      -9        0.000000        4.253234        0.120438
       1       5      -9        0.000000        3.704052        0.208340
      -1       5       9        0.000000        4.363485        0.117310
       0      -5       9        0.000000        0.842615        0.107768
       0      -5      -9        0.000000        0.860233        0.153126
       0      -5      -9        0.000000        0.818535        0.125715
       0       5       9        0.000000        0.818535        0.070204
       0       5       9        0.000000        0.860233        0.092118
       0       5      -9        0.000000        0.728011        0.728011
      -1      -5      -9        0.000000        1.974842        0.072212
      -1      -5      -9        0.000000        2.068816        0.106674
       1      -5       9        0.000000        1.979899        0.093103
      -1      -5      -9        0.000000        2.083267        0.078273
      -2      -5      -9        0.000000        2.009975        0.112609
      -2      -5      -9        0.000000        2.083267        0.090781
      -2      -5      -9        0.000000        1.941649        0.100454
       2      -5       9        0.000000        2.154066        0.099802
      -2       5      -9        0.000000        2.068816        0.137495
      -3      -5      -9        0.000000        2.816026        0.112324
      -3      -5      -9        0.000000        2.870540        0.111917
       3      -5       9        0.000000        2.935984        0.100494
      -3       5      -9        0.000000        3.009983        0.162177
      -4      -5      -9        0.000000        1.774824        0.153096
      -4      -5      -9        0.000000        1.658312        0.164994
       4      -5       9        0.000000        1.600000        0.143978
      -4      -6       9        0.000000        2.723968        0.151032
      -4       6       9        0.000000        2.049390        0.367130
       4       6      -9        0.000000        1.783255        0.724955
       3      -6      -9        0.000000        0.360555        0.394428
      -3      -6       9        0.000000        0.489898        0.489898
       3       6      -9        0.000000        0.818535        0.818535
       2      -6      -9        0.000000        0.519615        0.319615
      -2      -6       9        0.000000        0.692820        0.245607
      -2      -6       9        0.000000        0.836660        0.173335
      -2       6       9        0.000000        0.556776        0.556776
       2       6      -9        0.000000        0.538516        0.610396
      -1      -6       9        0.000000        3.896152        0.101419
       1      -6      -9        0.000000        3.938274        0.101609
       1      -6      -9        0.000000        3.870400        0.126071
      -1      -6       9        0.000000        3.972405        0.103296
      -1       6       9        0.000000        3.580503        0.130865
       0      -6       9        0.000000        2.012461        0.099349
       0      -6      -9        0.000000        2.054264        0.099782
       0      -6      -9        0.000000        2.177154        0.118028
       0       6       9        0.000000        1.846619        0.085937
      -1      -6      -9        0.000000        1.652271        0.093425
      -1      -6      -9        0.000000        1.763519        0.129506
       1      -6       9        0.000000        1.590597        0.107358
       2      -6       9        0.000000        3.538361        0.107618
      -2      -6      -9        0.000000        3.558089        0.104106
      -2      -6      -9        0.000000        3.682391        0.111676
      -2      -6      -9        0.000000        3.653765        0.099894
      -2       6      -9        0.000000        3.417601        0.141934
      -3      -6      -9        0.000000        3.736308        0.121063
      -3      -6      -9        0.000000        3.840573        0.117671
       3      -6       9        0.000000        3.937004        0.112086
      -3       6      -9        0.000000        3.772267        0.170879
      -4      -6      -9        0.000000        2.321637        0.142188
      -4      -6      -9        0.000000        2.051828        0.162384
      -4      -7       9        0.000000        2.149419        0.182187
      -4       7       9        0.000000        1.910497        0.492753
      -3      -7       9        0.000000        2.009975        0.120531
       3      -7      -9        0.000000        2.080865        0.180865
      -3      -7       9        0.000000        2.231591        0.131591
      -3      -7       9        0.000000        2.002498        0.155880
       2      -7      -9        0.000000        0.748331        0.432104
       2      -7      -9        0.000000        1.367479        0.134597
      -2      -7       9        0.000000        0.806226        0.258503
      -2      -7       9        0.000000        1.161895        0.166908
      -2       7       9        0.000000        0.655744        0.655744
      -1      -7       9        0.000000        0.387298        0.387298
       1      -7      -9        0.000000        0.374166        0.374166
      -1      -7       9        0.000000        0.685565        0.227308
       1      -7      -9        0.000000        0.768115        0.220392
       0      -7       9        0.000000        2.956349        0.106788
       0      -7      -9        0.000000        3.006659        0.110110
       0      -7       9        0.000000        2.954657        0.096336
       0      -7      -9        0.000000        3.051229        0.125481
      -1      -7      -9        0.000000        2.851315        0.134700
      -1      -7      -9        0.000000        2.840775        0.085779
       1      -7       9        0.000000        3.006659        0.104936
      -1      -7      -9        0.000000        2.986637        0.095270
       2      -7       9        0.000000        3.146427        0.123183
      -2      -7      -9        0.000000        3.290897        0.103421
      -2      -7      -9        0.000000        3.251154        0.106317
      -2      -7      -9        0.000000        3.170173        0.130437
      -2       7      -9        0.000000        3.009983        0.244120
       3      -7       9        0.000000        1.740690        0.156392
      -3      -7      -9        0.000000        1.838478        0.141421
      -3      -7      -9        0.000000        1.854724        0.137167
      -3       7      -9        0.000000        1.910497        0.264290
      -4      -7      -9        0.000000        1.740690        0.188272
      -4      -7      -9        0.000000        1.449138        0.282947
      -4       8       9        0.000000        1.135782        1.135782
      -3      -8       9        0.000000        1.315295        0.233629
       3      -8      -9        0.000000        1.646208        0.239083
      -3      -8       9        0.000000        1.276715        0.247152
      -3      -8       9        0.000000        1.288410        0.192965
       2      -8      -9        0.000000        2.061553        0.177408
       2      -8      -9        0.000000        2.092845        0.138363
      -2      -8       9        0.000000        1.907878        0.155737
      -2      -8       9        0.000000        2.014944        0.144115
       1      -8      -9        0.000000        2.332381        0.180637
      -1      -8       9        0.000000        2.295648        0.132317
       1      -8      -9        0.000000        2.449490        0.125700
      -1      -8       9        0.000000        2.332381        0.132381
       0      -8       9        0.000000        1.400000        0.155010
       0      -8       9        0.000000        1.700000        0.112549
       0      -8      -9        0.000000        1.618641        0.179892
      -1      -8      -9        0.000000        0.509902        0.368481
       1      -8       9        0.000000        0.538516        0.365311
      -1       8      -9        0.000000        0.519615        0.519615
      -2      -8      -9        0.000000        1.933908        0.131132
      -2      -8      -9        0.000000        1.846619        0.176289
       2      -8       9        0.000000        2.397916        0.139598
      -2       8      -9        0.000000        2.449490        0.213422
       3      -8       9        0.000000        0.374166        0.406859
      -3      -8      -9        0.000000        0.583095        0.583095
      -3      -8      -9        0.000000        0.905539        0.339853
      -3      -9       9        0.000000        0.663325        0.663325
      -3      -9       9        0.000000        1.232883        0.384355
       3      -9      -9        0.000000        1.509967        0.339497
      -2      -9       9        0.000000        0.435890        0.435890
      -2      -9       9        0.000000        0.489898        0.489898
       2      -9      -9        0.000000        0.871780        0.648173
      -1      -9       9        0.000000        4.184495        0.138510
      -1      -9       9        0.000000        4.421538        0.137848
       1      -9      -9        0.000000        4.315090        0.137770
       1      -9      -9        0.000000        4.481071        0.170619
       0      -9      -9        0.000000        4.916299        0.139271
       0      -9      -9        0.000000        4.763402        0.168840
       0      -9       9        0.000000        4.761302        0.140696
      -1      -9      -9        0.000000        1.459452        0.234707
       1      -9       9        0.000000        1.552417        0.174013
      -1      -9      -9        0.000000        1.558846        0.151721
      -1       9      -9        0.000000        1.345362        0.291797
      -2      -9      -9        0.000000        2.823119        0.200143
      -2      -9      -9        0.000000        2.917190        0.135105
       2      -9       9        0.000000        2.854820        0.158527
      -2       9      -9        0.000000        3.346640        0.224141
       3      -9       9        0.000000        2.422808        0.168923
      -2     -10       9        0.000000        2.227106        0.227106
      -2     -10       9        0.000000        2.507987        0.147902
       1     -10      -9        0.000000        1.884144        0.259337
      -1     -10       9        0.000000        1.407125        0.245230
       1     -10      -9        0.000000        1.664332        0.204880
       0     -10      -9        0.000000        1.708801        0.259663
       0     -10       9        0.000000        1.802776        0.187226
      -1     -10      -9        0.000000        1.374773        0.316472
       1     -10       9        0.000000        0.871780        0.497614
      -1     -10      -9        0.000000        1.438749        0.185753
      -1      10      -9        0.000000        1.536229        0.400447
      -2      10      -9        0.000000        4.117038        0.264766
      -5       0      10        0.000000        1.161895        0.229157
      -4       0      10        0.000000        1.183216        0.153653
      -3       0      10        0.000000        0.412311        0.188704
      -3       0      10        0.000000        0.100000        0.324264
       3       0     -10        0.000000        0.412311        0.412311
      -2       0      10        0.000000        2.349468        0.053820
      -2       0      10        0.000000        2.437212        0.051839
       2       0     -10        0.000000        2.445404        0.085319
      -2       0      10        0.000000        2.334524        0.076206
       2       0     -10        0.000000        2.529822        0.053938
      -1       0      10        0.000000        0.141421        0.141421
       1       0     -10        0.000000        0.200000        0.200000
       0       0     -10        0.000000       19.959459        0.396228
       0       0      10        0.000000       20.303448        0.386370
       0       0      10        0.000000       19.959208        0.395722
       0       0     -10        0.000000       19.761832        0.398206
      -1       0     -10        0.000000        0.346410        0.346410
      -1       0     -10        0.000000        0.173205        0.173205
      -2       0     -10        0.000000        5.772348        0.136747
      -2       0     -10        0.000000        5.714018        0.127427
       2       0      10        0.000000        5.900000        0.123323
      -3       0     -10        0.000000        0.479583        0.255976
      -3       0     -10        0.000000        0.282843        0.472141
       3       0      10        0.000000        0.331662        0.331662
       4       0      10        0.000000        2.628688        0.112739
      -4       0     -10        0.000000        2.683282        0.106462
      -5       0     -10        0.000000        0.616441        0.616441
      -5       1      10        0.000000        0.953939        0.283119
      -4      -1      10        0.000000        0.721110        0.182594
      -4      -1      10        0.000000        0.387298        0.387298
      -4       1      10        0.000000        0.608276        0.343701
       3      -1     -10        0.000000        1.300000        0.100000
      -3      -1      10        0.000000        1.466288        0.077043
      -3      -1      10        0.000000        1.244990        0.118047
       3       1     -10        0.000000        1.244990        0.135936
      -3       1      10        0.000000        1.204159        0.108714
       2      -1     -10        0.000000        3.093542        0.086882
      -2      -1      10        0.000000        3.033150        0.083574
      -2      -1      10        0.000000        3.033150        0.068357
       2      -1     -10        0.000000        3.069202        0.069202
      -2      -1      10        0.000000        3.108054        0.076553
      -2      -1      10        0.000000        3.059412        0.067757
      -2       1      10        0.000000        2.998333        0.079429
      -2       1      10        0.000000        3.069202        0.064206
      -2       1      10        0.000000        3.038092        0.064878
       2       1     -10        0.000000        3.064311        0.096146
      -1      -1      10        0.000000        8.315648        0.167642
      -1      -1      10        0.000000        8.212795        0.174138
      -1      -1      10        0.000000        8.652167        0.157463
       1      -1     -10        0.000000        8.333067        0.172184
      -1      -1      10        0.000000        8.422589        0.161838
      -1       1      10        0.000000        8.075890        0.177156
       1       1     -10        0.000000        8.267406        0.176052
       0      -1      10        0.000000        4.721229        0.107120
       0      -1     -10        0.000000        4.908156        0.099830
       0      -1      10        0.000000        5.271622        0.115073
       0      -1     -10        0.000000        4.767599        0.112494
       0      -1      10        0.000000        4.916299        0.099662
       0       1     -10        0.000000        4.619524        0.118413
       0       1      10        0.000000        4.898979        0.114630
       0       1     -10        0.000000        4.787484        0.100267
      -1      -1     -10        0.000000       12.841339        0.266364
      -1      -1     -10        0.000000       12.831212        0.268171
      -1      -1     -10        0.000000       13.124405        0.261279
       1      -1      10        0.000000       13.144581        0.260870
      -1       1     -10        0.000000       12.810933        0.266611
      -1       1     -10        0.000000       13.972115        0.248777
       2      -1      10        0.000000        1.431782        0.079007
      -2      -1     -10        0.000000        1.424781        0.075707
      -2      -1     -10        0.000000        1.417745        0.087331
      -2       1     -10        0.000000        1.449138        0.078007
      -2       1     -10        0.000000        1.476482        0.112664
      -3      -1     -10        0.000000        4.352011        0.104659
      -3      -1     -10        0.000000        4.228475        0.107795
       3      -1      10        0.000000        4.222558        0.105521
      -3       1     -10        0.000000        4.306971        0.108162
      -3       1     -10        0.000000        4.386342        0.141345
      -4      -1     -10        0.000000        0.223607        0.659569
      -4      -1     -10        0.000000        0.818535        0.194035
      -4      -1     -10        0.000000        0.748331        0.374166
       4      -1      10        0.000000        0.721110        0.231212
       4       1      10        0.000000        1.063015        0.146499
      -4       1     -10        0.000000        0.871780        0.231467
      -5      -1     -10        0.000000        0.916515        0.916515
      -5       1     -10        0.000000        0.824621        0.824621
      -5       1     -10        0.000000        0.842615        0.323000
      -5      -2      10        0.000000        1.081665        0.307069
      -4      -2      10        0.000000        1.349074        0.161640
      -4       2      10        0.000000        1.428286        0.128286
      -4       2      10        0.000000        1.371131        0.308116
       4       2     -10        0.000000        1.371131        0.226579
       3      -2     -10        0.000000        2.453569        0.095604
      -3      -2      10        0.000000        2.463737        0.099419
      -3      -2      10        0.000000        2.481935        0.077772
       3       2     -10        0.000000        2.372762        0.136694
      -3       2      10        0.000000        2.418677        0.090588
      -3       2      10        0.000000        2.557342        0.149023
      -2      -2      10        0.000000        3.952215        0.084399
      -2      -2      10        0.000000        4.002499        0.093535
       2      -2     -10        0.000000        3.938274        0.087300
      -2      -2      10        0.000000        3.768289        0.089974
      -2      -2      10        0.000000        3.817067        0.098196
       2      -2     -10        0.000000        3.876854        0.100613
      -2       2      10        0.000000        4.066940        0.115991
       2       2     -10        0.000000        3.867816        0.088927
      -2       2      10        0.000000        3.870400        0.090189
      -2       2      10        0.000000        3.875564        0.084786
       1      -2     -10        0.000000        0.916515        0.181668
      -1      -2      10        0.000000        1.244990        0.066007
       1      -2     -10        0.000000        1.067708        0.093028
      -1       2      10        0.000000        1.126943        0.073377
       1       2     -10        0.000000        1.191638        0.119257
       0      -2      10        0.000000        5.598214        0.114602
       0      -2      10        0.000000        5.458022        0.121356
       0      -2     -10        0.000000        5.479051        0.117148
       0      -2     -10        0.000000        5.506360        0.125840
       0      -2     -10        0.000000        5.765414        0.114750
       0       2      10        0.000000        5.623166        0.114083
       0       2     -10        0.000000        5.694734        0.129665
      -1      -2     -10        0.000000        3.611094        0.093993
       1      -2      10        0.000000        3.693237        0.089073
      -1      -2     -10        0.000000        3.721559        0.085627
      -1      -2     -10        0.000000        3.811824        0.080872
      -1       2     -10        0.000000        3.410279        0.134611
      -1       2     -10        0.000000        3.705401        0.083247
      -2      -2     -10        0.000000        9.468368        0.192593
      -2      -2     -10        0.000000        9.475231        0.189220
      -2      -2     -10        0.000000        9.087354        0.204224
       2      -2      10        0.000000        9.493682        0.191532
      -2      -2     -10        0.000000        9.515251        0.190016
      -2       2     -10        0.000000        9.413288        0.202425
      -2       2     -10        0.000000        9.595832        0.188920
      -3      -2     -10        0.000000        0.223607        0.234651
       3      -2      10        0.000000        0.793725        0.122905
      -3      -2     -10        0.000000        0.489898        0.316693
      -3       2     -10        0.000000        0.331662        0.331662
      -3       2     -10        0.000000        0.200000        0.500000
      -4      -2     -10        0.000000        1.673320        0.120903
      -4      -2     -10        0.000000        1.926136        0.123360
       4      -2      10        0.000000        1.813836        0.113836
      -4      -2     -10        0.000000        1.876166        0.229959
       4       2      10        0.000000        1.805547        0.111440
      -4       2     -10        0.000000        1.612452        0.125845
      -5      -2     -10        0.000000        0.728011        0.628011
      -5       2     -10        0.000000        0.400000        0.774734
      -5      -3      10        0.000000        1.562050        0.209275
      -4      -3      10        0.000000        0.761577        0.292536
      -4       3      10        0.000000        1.228821        0.467243
      -3       3      10        0.000000        0.529150        0.529150
       2      -3     -10        0.000000        2.017424        0.099091
      -2      -3      10        0.000000        1.941649        0.086925
      -2      -3      10        0.000000        1.969772        0.064516
      -2      -3      10        0.000000        2.002498        0.073768
      -2       3      10        0.000000        2.039608        0.062236
      -2       3      10        0.000000        2.063977        0.140438
       2       3     -10        0.000000        2.156386        0.134011
      -2       3      10        0.000000        1.939072        0.078964
       1      -3     -10        0.000000        3.809199        0.106498
      -1      -3      10        0.000000        3.853570        0.094581
      -1       3      10        0.000000        3.989987        0.102829
      -1       3      10        0.000000        3.987480        0.081075
       1       3     -10        0.000000        4.284857        0.115924
       0      -3      10        0.000000        2.397916        0.080590
       0      -3     -10        0.000000        2.284732        0.087006
       0      -3     -10        0.000000        2.410394        0.058799
       0       3     -10        0.000000        2.046949        0.152219
       0       3      10        0.000000        2.370654        0.064141
      -1      -3     -10        0.000000        4.333590        0.094486
      -1      -3     -10        0.000000        4.310452        0.097378
       1      -3      10        0.000000        4.350862        0.099980
      -1      -3     -10        0.000000        4.315090        0.106765
      -1       3     -10        0.000000        4.126742        0.148049
      -2      -3     -10        0.000000        1.824829        0.184707
      -2      -3     -10        0.000000        1.603122        0.103122
      -2      -3     -10        0.000000        1.500000        0.085786
       2      -3      10        0.000000        1.496663        0.093096
      -2      -3     -10        0.000000        1.549193        0.089741
      -2       3     -10        0.000000        1.661325        0.121844
       3      -3      10        0.000000        4.297674        0.106015
      -3      -3     -10        0.000000        4.395452        0.107096
      -3      -3     -10        0.000000        4.042277        0.115446
      -3       3     -10        0.000000        4.337050        0.145391
      -4      -3     -10        0.000000        1.760682        0.135874
      -4      -3     -10        0.000000        1.552417        0.134673
       4      -3      10        0.000000        1.702939        0.121800
      -5      -3     -10        0.000000        1.603122        0.192448
      -5      -3     -10        0.000000        1.926136        0.154132
      -5       3     -10        0.000000        0.866025        0.866025
      -5      -4      10        0.000000        2.533772        0.156799
      -5       4      10        0.000000        2.177154        0.385507
      -4      -4      10        0.000000        0.547723        0.547723
      -4       4      10        0.000000        0.911043        0.911043
      -3      -4      10        0.000000        1.044031        0.166534
      -3      -4      10        0.000000        0.830662        0.152429
       3      -4     -10        0.000000        0.927362        0.192515
      -3      -4      10        0.000000        1.144552        0.110144
      -3       4      10        0.000000        1.009950        0.426855
       3       4     -10        0.000000        0.608276        0.608276
      -2      -4      10        0.000000        1.319091        0.090270
      -2      -4      10        0.000000        1.360147        0.107151
       2      -4     -10        0.000000        1.334166        0.121731
      -2      -4      10        0.000000        1.483240        0.083240
       2       4     -10        0.000000        1.048809        0.334666
      -2       4      10        0.000000        1.489966        0.189966
      -1      -4      10        0.000000        2.694439        0.079099
       1      -4     -10        0.000000        2.525866        0.096875
       1       4     -10        0.000000        2.420744        0.193638
      -1       4      10        0.000000        2.624881        0.097036
       0      -4     -10        0.000000        3.322650        0.099297
       0      -4      10        0.000000        3.178050        0.089361
       0       4      10        0.000000        3.319639        0.074642
       0       4     -10        0.000000        3.155947        0.177692
      -1      -4     -10        0.000000        2.745906        0.077573
       1      -4      10        0.000000        2.700000        0.086573
      -1      -4     -10        0.000000        2.754995        0.092290
      -1      -4     -10        0.000000        2.683282        0.073684
      -2      -4     -10        0.000000        0.412311        0.312311
       2      -4      10        0.000000        0.300000        0.300000
      -2      -4     -10        0.000000        0.616441        0.216441
      -2      -4     -10        0.000000        0.547723        0.173557
      -2       4     -10        0.000000        0.387298        0.387298
      -3      -4     -10        0.000000        2.590367        0.096374
       3      -4      10        0.000000        2.328089        0.112237
      -3      -4     -10        0.000000        2.511971        0.105729
      -3       4     -10        0.000000        2.424871        0.166553
       4      -4      10        0.000000        3.645545        0.119925
      -4      -4     -10        0.000000        3.556684        0.127398
      -4      -4     -10        0.000000        3.567913        0.125530
      -5      -4     -10        0.000000        1.183216        0.288789
      -5       4     -10        0.000000        0.565685        0.730463
      -4      -5      10        0.000000        2.515949        0.147405
       4       5     -10        0.000000        2.144761        0.459531
      -4       5      10        0.000000        2.190890        0.336167
      -3      -5      10        0.000000        1.688194        0.097597
      -3      -5      10        0.000000        1.627882        0.141275
       3      -5     -10        0.000000        1.590597        0.151848
      -3      -5      10        0.000000        1.600000        0.113393
       3       5     -10        0.000000        1.081665        0.981665
      -3       5      10        0.000000        1.600000        0.265834
       2      -5     -10        0.000000        1.587451        0.094132
      -2      -5      10        0.000000        1.555635        0.099613
      -2      -5      10        0.000000        1.702939        0.112341
      -2      -5      10        0.000000        1.581139        0.087820
       2      -5     -10        0.000000        1.519868        0.134228
       2       5     -10        0.000000        1.624808        0.301932
      -2       5      10        0.000000        1.389244        0.223054
       1      -5     -10        0.000000        1.208305        0.099251
      -1      -5      10        0.000000        1.256981        0.090790
       1      -5     -10        0.000000        1.292285        0.134701
      -1      -5      10        0.000000        1.174734        0.102353
       1       5     -10        0.000000        1.252996        0.364177
      -1       5      10        0.000000        1.400000        0.143019
       0      -5      10        0.000000        2.046949        0.084807
       0      -5     -10        0.000000        1.982423        0.116947
       0       5      10        0.000000        2.051828        0.059343
       0       5     -10        0.000000        1.603122        0.280246
      -1      -5     -10        0.000000        1.014889        0.092935
       1      -5      10        0.000000        1.122497        0.102693
      -1      -5     -10        0.000000        1.272792        0.072792
      -1      -5     -10        0.000000        1.208305        0.122027
       2      -5      10        0.000000        1.220656        0.120656
      -2      -5     -10        0.000000        1.326650        0.101905
      -2      -5     -10        0.000000        1.476482        0.116335
      -2      -5     -10        0.000000        1.236932        0.105561
      -2       5     -10        0.000000        1.272792        0.172792
      -3      -5     -10        0.000000        0.100000        0.419615
      -3       5     -10        0.000000        0.500000        0.500000
      -4      -5     -10        0.000000        1.367479        0.231698
       4      -5      10        0.000000        1.256981        0.184600
      -4      -5     -10        0.000000        1.428286        0.171305
      -4       5     -10        0.000000        0.663325        0.663325
      -4      -6      10        0.000000        3.117691        0.157962
      -4       6      10        0.000000        3.061046        0.291569
       4       6     -10        0.000000        1.936492        0.667634
       3      -6     -10        0.000000        1.581139        0.181139
      -3      -6      10        0.000000        1.264911        0.151358
      -3      -6      10        0.000000        1.417745        0.141030
      -3      -6      10        0.000000        1.228821        0.209017
       3       6     -10        0.000000        1.077033        1.077033
      -3       6      10        0.000000        0.591608        0.591608
       2      -6     -10        0.000000        1.153256        0.138367
      -2      -6      10        0.000000        1.352775        0.123954
      -2      -6      10        0.000000        1.296148        0.129958
       2      -6     -10        0.000000        1.410674        0.161674
       2       6     -10        0.000000        1.500000        0.351087
      -2       6      10        0.000000        1.272792        0.298113
       1      -6     -10        0.000000        2.816026        0.097570
      -1      -6      10        0.000000        2.891366        0.096729
      -1      -6      10        0.000000        2.847806        0.092811
       1      -6     -10        0.000000        2.910326        0.124649
       1       6     -10        0.000000        2.172556        0.269926
      -1       6      10        0.000000        2.934280        0.120031
       0      -6      10        0.000000        1.220656        0.120656
       0      -6     -10        0.000000        1.224745        0.161730
      -1      -6     -10        0.000000        0.400000        0.400000
      -2      -6     -10        0.000000        0.608276        0.220978
      -2      -6     -10        0.000000        0.447214        0.447214
      -3      -6     -10        0.000000        1.717556        0.120684
      -3      -6     -10        0.000000        1.797220        0.135895
       3      -6      10        0.000000        1.717556        0.123819
      -3       6     -10        0.000000        2.002498        0.219243
      -4      -6     -10        0.000000        4.059557        0.144202
      -4      -6     -10        0.000000        4.264974        0.138232
      -4      -7      10        0.000000        4.471018        0.157087
      -4       7      10        0.000000        3.702702        0.329276
      -3      -7      10        0.000000        2.286919        0.132853
      -3      -7      10        0.000000        2.481935        0.149554
      -3      -7      10        0.000000        2.351595        0.133488
       3      -7     -10        0.000000        2.313007        0.170578
      -2      -7      10        0.000000        0.500000        0.500000
       2       7     -10        0.000000        0.700000        0.700000
      -1      -7      10        0.000000        0.509902        0.509902
       1      -7     -10        0.000000        0.692820        0.361158
       0      -7      10        0.000000        4.073082        0.115811
       0      -7     -10        0.000000        4.102438        0.137593
       0      -7     -10        0.000000        4.134005        0.115299
       0      -7      10        0.000000        4.130375        0.102969
       1      -7      10        0.000000        1.122497        0.163331
      -1      -7     -10        0.000000        1.264911        0.111655
      -1      -7     -10        0.000000        1.058301        0.099134
      -1      -7     -10        0.000000        1.356466        0.169032
      -2      -7     -10        0.000000        0.100000        0.429150
       2      -7      10        0.000000        0.387298        0.387298
      -2      -7     -10        0.000000        0.519615        0.519615
      -2      -7     -10        0.000000        0.509902        0.509902
      -2       7     -10        0.000000        0.469042        0.469042
      -3      -7     -10        0.000000        3.817067        0.123830
       3      -7      10        0.000000        3.474191        0.141024
      -3      -7     -10        0.000000        3.753665        0.123238
      -3       7     -10        0.000000        3.638681        0.196298
      -4      -7     -10        0.000000        2.080865        0.180865
      -4      -7     -10        0.000000        1.954482        0.208057
      -3      -8      10        0.000000        5.816356        0.145377
       3      -8     -10        0.000000        5.858327        0.173259
      -3      -8      10        0.000000        5.599107        0.162196
      -2      -8      10        0.000000        1.462874        0.178351
       2      -8     -10        0.000000        1.044031        0.452423
      -2      -8      10        0.000000        0.921954        0.243721
       2      -8     -10        0.000000        0.800000        0.517157
      -1      -8      10        0.000000        0.640312        0.375737
      -1      -8      10        0.000000        0.624500        0.400893
       1      -8     -10        0.000000        0.774597        0.442934
       0      -8      10        0.000000        2.012461        0.128317
       0      -8     -10        0.000000        2.078461        0.170583
       0      -8      10        0.000000        2.032240        0.113908
      -1      -8     -10        0.000000        3.231099        0.150515
      -1      -8     -10        0.000000        3.349627        0.106172
       1      -8      10        0.000000        3.109662        0.128052
      -2      -8     -10        0.000000        2.364318        0.173428
      -2      -8     -10        0.000000        2.273763        0.131335
       2      -8      10        0.000000        2.557342        0.138665
      -2       8     -10        0.000000        2.537716        0.201051
       3      -8      10        0.000000        0.663325        0.663325
      -3      -8     -10        0.000000        0.911043        0.319435
      -3      -8     -10        0.000000        0.346410        0.434615
      -3       8     -10        0.000000        1.118034        0.598419
       3      -9     -10        0.000000        0.989949        0.989949
      -3      -9      10        0.000000        1.590597        0.279110
      -2      -9      10        0.000000        5.684189        0.153366
       2      -9     -10        0.000000        5.547071        0.180508
      -2      -9      10        0.000000        5.514526        0.137724
       1      -9     -10        0.000000        3.453983        0.179842
      -1      -9      10        0.000000        3.357082        0.138387
       1      -9     -10        0.000000        3.223352        0.139524
      -1      -9      10        0.000000        2.826659        0.177131
      -1      -9     -10        0.000000        1.813836        0.131575
      -1      -9     -10        0.000000        1.827567        0.202759
       1      -9      10        0.000000        1.746425        0.168452
      -1       9     -10        0.000000        1.664332        0.257207
      -2      -9     -10        0.000000        1.661325        0.212187
       2      -9      10        0.000000        1.466288        0.229356
      -2      -9     -10        0.000000        1.757840        0.164102
      -2       9     -10        0.000000        2.195450        0.256378
       3      -9      10        0.000000        1.824829        0.243690
       1     -10     -10        0.000000        3.789459        0.207560
      -1     -10      10        0.000000        3.989987        0.149415
       0     -10      10        0.000000        1.122497        0.297876
      -1     -10     -10        0.000000        1.552417        0.287506
       1     -10      10        0.000000        1.526434        0.222593
      -1     -10     -10        0.000000        1.658312        0.161649
      -1      10     -10        0.000000        1.249000        0.549000
      -5       0      11        0.000000        2.521904        0.149142
      -4       0      11        0.000000        0.556776        0.456776
      -3       0      11        0.000000        0.529150        0.229150
       3       0     -11        0.000000        0.529150        0.305543
      -2       0      11        0.000000        0.173205        0.173205
      -1       0      11        0.000000        0.565685        0.075787
       1       0     -11        0.000000        0.774597        0.111272
      -1       0      11        0.000000        0.700000        0.108392
       0       0     -11        0.000000        0.741620        0.101307
       0       0     -11        0.000000        0.479583        0.067273
       0       0      11        0.000000        0.458258        0.070959
      -1       0     -11        0.000000        2.509980        0.068669
      -1       0     -11        0.000000        2.584570        0.084570
      -3       0     -11        0.000000        2.092845        0.087851
       3       0      11        0.000000        2.147091        0.085538
      -4       0     -11        0.000000        0.670820        0.670820
       4       0      11        0.000000        0.300000        0.316441
      -5       0     -11        0.000000        1.300000        0.209129
      -5      -1      11        0.000000        0.877496        0.367594
      -5       1      11        0.000000        0.932738        0.341130
      -4      -1      11        0.000000        0.984886        0.191160
      -4       1      11        0.000000        1.024695        0.164463
       4       1     -11        0.000000        0.648074        0.648074
       3      -1     -11        0.000000        4.316248        0.109112
      -3      -1      11        0.000000        4.295346        0.110851
      -3      -1      11        0.000000        4.585848        0.089182
       3       1     -11        0.000000        3.968627        0.130659
      -3       1      11        0.000000        4.308132        0.106942
      -2      -1      11        0.000000        0.509902        0.062688
       2      -1     -11        0.000000        0.458258        0.111847
       2      -1     -11        0.000000        0.346410        0.346410
      -2      -1      11        0.000000        0.479583        0.079583
      -2      -1      11        0.000000        0.331662        0.331662
      -2      -1      11        0.000000        0.412311        0.239105
      -2       1      11        0.000000        0.538516        0.138516
       2       1     -11        0.000000        0.100000        0.347214
      -2       1      11        0.000000        0.509902        0.074012
      -2       1      11        0.000000        0.331662        0.108056
       1      -1     -11        0.000000        5.938013        0.131121
      -1      -1      11        0.000000        5.973274        0.122633
      -1       1      11        0.000000        5.980803        0.130162
       1       1     -11        0.000000        5.948109        0.135192
       0      -1      11        0.000000        1.720465        0.062153
       0      -1     -11        0.000000        1.652271        0.052271
       0      -1      11        0.000000        1.734935        0.055650
       0      -1     -11        0.000000        1.702939        0.078131
       0       1     -11        0.000000        1.670329        0.092356
       0       1     -11        0.000000        1.655295        0.049057
      -1      -1     -11        0.000000        4.090232        0.101498
       1      -1      11        0.000000        4.068169        0.095764
      -1      -1     -11        0.000000        4.036087        0.094007
      -1       1     -11        0.000000        4.358899        0.102140
      -1       1     -11        0.000000        4.077990        0.093018
      -2      -1     -11        0.000000        1.204159        0.090607
       2      -1      11        0.000000        1.244990        0.083095
      -2      -1     -11        0.000000        1.341641        0.120985
      -2       1     -11        0.000000        1.126943        0.087712
      -2       1     -11        0.000000        1.300000        0.125266
      -3      -1     -11        0.000000        0.916515        0.135490
       3      -1      11        0.000000        0.836660        0.136660
      -3       1     -11        0.000000        0.748331        0.148331
      -3       1     -11        0.000000        0.538516        0.538516
      -4      -1     -11        0.000000        0.412311        0.412311
      -4       1     -11        0.000000        0.883176        0.883176
      -4       1     -11        0.000000        0.447214        0.447214
       4       1      11        0.000000        0.400000        0.400000
      -5      -1     -11        0.000000        0.479583        0.479583
      -5      -1     -11        0.000000        1.407125        0.639010
      -5       1     -11        0.000000        0.948683        0.948683
      -5       1     -11        0.000000        1.200000        0.220204
      -5      -2      11        0.000000        1.048809        0.293825
      -4      -2      11        0.000000        2.391652        0.137767
       4       2     -11        0.000000        2.213594        0.161766
      -4       2      11        0.000000        2.071232        0.116749
       3      -2     -11        0.000000        0.938083        0.125679
      -3      -2      11        0.000000        1.140175        0.086610
      -3      -2      11        0.000000        1.048809        0.148809
      -3       2      11        0.000000        0.836660        0.143840
       3       2     -11        0.000000        0.663325        0.439718
      -3       2      11        0.000000        1.220656        0.230706
       2      -2     -11        0.000000        0.640312        0.150414
      -2      -2      11        0.000000        0.830662        0.116520
      -2      -2      11        0.000000        0.793725        0.072615
       2      -2     -11        0.000000        0.900000        0.081465
      -2      -2      11        0.000000        0.800000        0.078890
      -2      -2      11        0.000000        0.854400        0.099417
      -2       2      11        0.000000        0.692820        0.101212
       2       2     -11        0.000000        0.624500        0.114598
       2       2     -11        0.000000        0.754983        0.180527
      -2       2      11        0.000000        0.692820        0.092820
      -2       2      11        0.000000        0.806226        0.206226
       1      -2     -11        0.000000        1.424781        0.083140
      -1      -2      11        0.000000        1.424781        0.060963
      -1       2      11        0.000000        1.410674        0.072765
       0      -2      11        0.000000        4.137632        0.085472
       0      -2     -11        0.000000        4.008740        0.101056
       0      -2     -11        0.000000        3.911521        0.089218
       0      -2     -11        0.000000        4.104875        0.091149
       0      -2      11        0.000000        3.948417        0.093550
       0       2     -11        0.000000        3.923009        0.111185
       0       2      11        0.000000        4.080441        0.085444
       1      -2      11        0.000000        0.173205        0.200961
      -1      -2     -11        0.000000        0.346410        0.173205
      -1      -2     -11        0.000000        0.400000        0.226795
      -1       2     -11        0.000000        0.000000        0.583095
      -1       2     -11        0.000000        0.173205        0.173205
      -2      -2     -11        0.000000        1.506652        0.176238
      -2      -2     -11        0.000000        1.627882        0.081920
      -2      -2     -11        0.000000        1.371131        0.110179
       2      -2      11        0.000000        1.519868        0.084598
      -2      -2     -11        0.000000        1.609348        0.076377
      -2       2     -11        0.000000        1.658312        0.077174
      -2       2     -11        0.000000        1.513275        0.120436
      -3      -2     -11        0.000000        1.743560        0.103438
       3      -2      11        0.000000        1.827567        0.092632
      -3      -2     -11        0.000000        1.618641        0.115312
      -3      -2     -11        0.000000        1.609348        0.188081
      -3       2     -11        0.000000        1.737815        0.178969
      -3       2     -11        0.000000        1.788854        0.097701
      -4      -2     -11        0.000000        0.374166        0.374166
      -4      -2     -11        0.000000        0.591608        0.591608
      -4      -2     -11        0.000000        0.905539        0.177528
       4      -2      11        0.000000        0.509902        0.509902
      -4       2     -11        0.000000        0.640312        0.308650
       4       2      11        0.000000        0.400000        0.400000
      -4       2     -11        0.000000        0.888819        0.888819
      -5      -3      11        0.000000        0.300000        0.481025
      -4      -3      11        0.000000        1.385641        0.164985
       4       3     -11        0.000000        0.938083        0.938083
      -4       3      11        0.000000        1.606238        0.294750
      -3      -3      11        0.000000        1.260952        0.138455
       3      -3     -11        0.000000        0.900000        0.158380
      -3      -3      11        0.000000        1.240967        0.096415
      -3       3      11        0.000000        1.378405        0.242623
       3       3     -11        0.000000        1.140175        0.251356
      -3       3      11        0.000000        1.252996        0.095413
      -2      -3      11        0.000000        0.489898        0.189898
       1      -3     -11        0.000000        0.685565        0.119880
      -1      -3      11        0.000000        0.678233        0.095138
       1       3     -11        0.000000        0.509902        0.409902
      -1       3      11        0.000000        0.489898        0.065634
       0      -3      11        0.000000        0.244949        0.244949
       0      -3     -11        0.000000        0.447214        0.223607
      -1      -3     -11        0.000000        5.408327        0.116824
      -1      -3     -11        0.000000        5.495453        0.122372
       1      -3      11        0.000000        5.300000        0.122163
      -2      -3     -11        0.000000        2.061553        0.084181
      -2      -3     -11        0.000000        2.049390        0.077082
      -2      -3     -11        0.000000        2.049390        0.094908
       2      -3      11        0.000000        2.170253        0.082192
      -2      -3     -11        0.000000        2.260531        0.179666
      -2       3     -11        0.000000        1.933908        0.125594
      -3      -3     -11        0.000000        2.032240        0.106104
      -3      -3     -11        0.000000        1.915724        0.104647
       3      -3      11        0.000000        1.754993        0.105751
      -3       3     -11        0.000000        1.992486        0.167657
       4      -3      11        0.000000        1.126943        0.162578
      -4      -3     -11        0.000000        0.591608        0.491608
      -4      -3     -11        0.000000        0.479583        0.479583
      -5      -3     -11        0.000000        0.591608        0.591608
      -5      -4      11        0.000000        2.012461        0.201384
      -5       4      11        0.000000        2.465766        0.332693
      -4      -4      11        0.000000        2.569047        0.142114
       4       4     -11        0.000000        2.582634        0.308871
      -4       4      11        0.000000        2.632489        0.234574
       3      -4     -11        0.000000        0.509902        0.509902
      -3      -4      11        0.000000        0.848528        0.185203
      -3      -4      11        0.000000        0.748331        0.165236
      -3      -4      11        0.000000        1.009950        0.121131
      -3       4      11        0.000000        0.959166        0.490125
       3       4     -11        0.000000        0.648074        0.648074
      -2      -4      11        0.000000        2.133073        0.086124
      -2      -4      11        0.000000        2.238303        0.070355
      -2      -4      11        0.000000        2.297825        0.093284
       2      -4     -11        0.000000        2.100000        0.112539
       2       4     -11        0.000000        1.794436        0.210138
      -2       4      11        0.000000        2.347339        0.136004
       1      -4     -11        0.000000        0.734847        0.169161
      -1      -4      11        0.000000        0.692820        0.109725
      -1       4      11        0.000000        0.754983        0.198207
       1       4     -11        0.000000        0.754983        0.510034
       0      -4      11        0.000000        1.526434        0.087684
       0      -4     -11        0.000000        1.624808        0.098374
       0       4     -11        0.000000        1.204159        0.282205
       0       4      11        0.000000        1.643168        0.071544
      -1      -4     -11        0.000000        0.600000        0.175736
      -1      -4     -11        0.000000        0.509902        0.149347
       1      -4      11        0.000000        0.616441        0.136858
      -1       4     -11        0.000000        1.009950        0.401674
      -2      -4     -11        0.000000        2.971532        0.099250
      -2      -4     -11        0.000000        2.875761        0.090083
      -2      -4     -11        0.000000        2.971532        0.087091
       2      -4      11        0.000000        3.026549        0.090566
      -2       4     -11        0.000000        2.966479        0.125705
      -3      -4     -11        0.000000        0.663325        0.216111
       3      -4      11        0.000000        0.000000        0.509902
      -3      -4     -11        0.000000        0.331662        0.331662
      -3       4     -11        0.000000        0.565685        0.565685
       4      -4      11        0.000000        1.081665        0.209886
      -4      -4     -11        0.000000        1.212436        0.178028
      -4      -4     -11        0.000000        1.296148        0.196148
      -4      -5      11        0.000000        2.154066        0.159072
      -4       5      11        0.000000        1.723369        0.366903
      -3      -5      11        0.000000        3.090307        0.112053
      -3      -5      11        0.000000        3.553871        0.121671
       3      -5     -11        0.000000        3.494281        0.128275
      -3      -5      11        0.000000        3.649658        0.097194
       3       5     -11        0.000000        3.440930        0.245621
      -3       5      11        0.000000        3.629049        0.180862
      -2      -5      11        0.000000        1.931321        0.103754
      -2      -5      11        0.000000        2.022375        0.109262
      -2      -5      11        0.000000        1.992486        0.079373
       2      -5     -11        0.000000        1.994994        0.129518
      -2       5      11        0.000000        1.984943        0.187723
       2       5     -11        0.000000        1.352775        0.378095
      -1      -5      11        0.000000        3.604164        0.094179
       1      -5     -11        0.000000        3.652396        0.114035
      -1      -5      11        0.000000        3.504283        0.098406
       1       5     -11        0.000000        3.405877        0.216834
      -1       5      11        0.000000        3.678315        0.107601
       0      -5      11        0.000000        0.830662        0.123556
       0      -5     -11        0.000000        0.854400        0.161580
       0       5      11        0.000000        0.943398        0.077373
       0       5     -11        0.000000        1.034408        0.409908
       1      -5      11        0.000000        0.173205        0.251059
       2      -5      11        0.000000        1.483240        0.112109
      -2      -5     -11        0.000000        1.352775        0.107785
      -2      -5     -11        0.000000        1.414214        0.110373
      -2      -5     -11        0.000000        1.407125        0.126500
      -2       5     -11        0.000000        1.389244        0.185085
      -3      -5     -11        0.000000        3.512834        0.105489
      -3      -5     -11        0.000000        3.149603        0.173028
       3      -5      11        0.000000        3.475629        0.106653
      -4      -5     -11        0.000000        0.800000        0.375736
       4      -5      11        0.000000        0.866025        0.407768
      -4      -5     -11        0.000000        0.538516        0.538516
      -4       5     -11        0.000000        0.685565        0.685565
      -4      -6      11        0.000000        1.039230        0.311219
      -4       6      11        0.000000        1.081665        1.081665
      -3      -6      11        0.000000        0.244949        0.355051
      -3      -6      11        0.000000        0.916515        0.245695
      -3       6      11        0.000000        1.081665        0.543149
      -2      -6      11        0.000000        4.041039        0.111663
      -2      -6      11        0.000000        4.211888        0.111888
       2      -6     -11        0.000000        4.060788        0.133957
       2       6     -11        0.000000        4.029888        0.249677
      -2       6      11        0.000000        4.091455        0.154451
      -1      -6      11        0.000000        2.195450        0.090693
      -1      -6      11        0.000000        2.197726        0.100108
       1      -6     -11        0.000000        2.249444        0.132843
       1       6     -11        0.000000        1.910497        0.301150
      -1       6      11        0.000000        1.926136        0.159784
       0      -6     -11        0.000000        1.997498        0.134705
       0      -6      11        0.000000        2.137756        0.103057
      -1      -6     -11        0.000000        0.608276        0.325434
      -1      -6     -11        0.000000        0.818535        0.132970
       1      -6      11        0.000000        0.836660        0.151095
      -2      -6     -11        0.000000        1.772005        0.110680
      -2      -6     -11        0.000000        1.835756        0.129884
      -2      -6     -11        0.000000        1.777639        0.098353
       2      -6      11        0.000000        1.609348        0.119381
      -2       6     -11        0.000000        1.902630        0.170579
      -3      -6     -11        0.000000        0.374166        0.374166
       3      -6      11        0.000000        0.591608        0.591608
      -3       6     -11        0.000000        0.806226        0.806226
      -4      -6     -11        0.000000        0.793725        0.447315
      -4      -6     -11        0.000000        0.435890        0.435890
      -4       6     -11        0.000000        0.591608        0.604218
      -4      -7      11        0.000000        4.976947        0.154085
      -4       7      11        0.000000        4.952777        0.260230
      -3      -7      11        0.000000        1.077033        0.205253
       3      -7     -11        0.000000        0.700000        0.700000
      -3      -7      11        0.000000        1.004988        0.250004
      -3      -7      11        0.000000        1.090871        0.254211
      -2      -7      11        0.000000        0.479583        0.479583
      -2      -7      11        0.000000        0.458258        0.458258
       2      -7     -11        0.000000        0.663325        0.663325
       2       7     -11        0.000000        0.905539        0.905539
      -1      -7      11        0.000000        2.485961        0.117417
       1      -7     -11        0.000000        2.549510        0.147427
      -1      -7      11        0.000000        2.696294        0.107858
       0      -7     -11        0.000000        1.244990        0.191425
       0      -7      11        0.000000        1.157584        0.147633
       0      -7      11        0.000000        1.240967        0.109597
       1      -7      11        0.000000        3.594440        0.114498
      -1      -7     -11        0.000000        3.555278        0.104191
      -1      -7     -11        0.000000        3.629049        0.130478
       2      -7      11        0.000000        1.014889        0.184227
      -2      -7     -11        0.000000        0.818535        0.210259
      -2      -7     -11        0.000000        0.469042        0.469042
      -2      -7     -11        0.000000        0.640312        0.253014
      -2       7     -11        0.000000        0.761577        0.561577
      -3      -7     -11        0.000000        1.034408        0.247007
       3      -7      11        0.000000        0.953939        0.283119
      -3      -7     -11        0.000000        0.655744        0.482539
      -3       7     -11        0.000000        0.812404        0.812404
      -4      -7     -11        0.000000        1.187434        0.293007
      -3      -8      11        0.000000        5.976621        0.152533
      -3      -8      11        0.000000        5.880476        0.162085
       3      -8     -11        0.000000        5.721014        0.180256
      -2      -8      11        0.000000        2.391652        0.137767
      -2      -8      11        0.000000        2.362202        0.144095
       2      -8     -11        0.000000        2.186321        0.183823
      -1      -8      11        0.000000        0.447214        0.447214
       1      -8     -11        0.000000        0.100000        0.585565
       0      -8      11        0.000000        4.104875        0.113635
       0      -8      11        0.000000        4.048456        0.124173
       0      -8     -11        0.000000        4.001250        0.145086
       1      -8      11        0.000000        3.203123        0.122539
      -1      -8     -11        0.000000        3.072458        0.111040
      -1      -8     -11        0.000000        3.061046        0.152438
      -2      -8     -11        0.000000        0.714143        0.326845
      -2       8     -11        0.000000        0.458258        0.474480
      -3      -8     -11        0.000000        0.141421        0.551399
      -3       8     -11        0.000000        0.734847        0.734847
      -3      -9      11        0.000000        0.836660        0.836660
      -2      -9      11        0.000000        6.011655        0.143095
      -2      -9      11        0.000000        6.019967        0.157373
      -2      -9      11        0.000000        6.173330        0.157517
       2      -9     -11        0.000000        5.870264        0.184316
      -1      -9      11        0.000000        0.447214        0.447214
       0      -9     -11        0.000000        2.570992        0.185620
       0      -9      11        0.000000        2.971532        0.137806
      -1      -9     -11        0.000000        0.761577        0.761577
       1      -9      11        0.000000        0.469042        0.469042
      -2      -9     -11        0.000000        1.670329        0.238547
      -2      -9     -11        0.000000        1.811077        0.158806
       2      -9      11        0.000000        1.783255        0.180133
      -2       9     -11        0.000000        2.204541        0.252619
      -2     -10      11        0.000000        2.009975        0.182408
      -1     -10      11        0.000000        7.111259        0.178727
       0     -10      11        0.000000        3.096773        0.162492
       0     -10     -11        0.000000        2.847806        0.192623
      -1     -10     -11        0.000000        1.191638        0.242954
       1     -10      11        0.000000        1.039230        0.368410
      -1     -10     -11        0.000000        0.969536        0.582238
      -1      10     -11        0.000000        1.284523        0.497122
       4       0     -12        0.000000        6.363175        0.164788
      -4       0      12        0.000000        6.903622        0.147144
       3       0     -12        0.000000        0.400000        0.400000
      -3       0      12        0.000000        0.447214        0.447214
       2       0     -12        0.000000        5.412024        0.122411
      -2       0      12        0.000000        5.282045        0.117745
      -2       0      12        0.000000        5.315073        0.108346
       0       0     -12        0.000000        7.170077        0.155093
       0       0     -12        0.000000        7.156815        0.145396
       0       0      12        0.000000        7.282857        0.142829
       0       0      12        0.000000        7.202083        0.148006
      -1       0     -12        0.000000        0.282843        0.282843
      -2       0     -12        0.000000        0.916515        0.097980
       2       0      12        0.000000        0.921954        0.103419
       3       0      12        0.000000        0.316228        0.316228
      -3       0     -12        0.000000        0.469042        0.327620
       4       0      12        0.000000        0.648074        0.301664
      -4       0     -12        0.000000        0.860233        0.204489
      -5      -1      12        0.000000        3.218695        0.159284
      -5       1      12        0.000000        3.072458        0.155268
      -4      -1      12        0.000000        3.008322        0.123881
      -4       1      12        0.000000        3.004996        0.115359
       4       1     -12        0.000000        2.801785        0.165500
      -3      -1      12        0.000000        2.104757        0.072516
       3      -1     -12        0.000000        2.385372        0.098453
      -3      -1      12        0.000000        2.293469        0.100298
      -3       1      12        0.000000        2.317326        0.092466
       3       1     -12        0.000000        2.355844        0.124252
      -2      -1      12        0.000000        5.295281        0.118409
       2      -1     -12        0.000000        5.358171        0.122715
      -2      -1      12        0.000000        5.375872        0.117545
      -2      -1      12        0.000000        5.346027        0.109616
       2      -1     -12        0.000000        5.244044        0.109845
      -2       1      12        0.000000        5.346962        0.108641
      -2       1      12        0.000000        5.342284        0.108739
      -2       1      12        0.000000        5.370289        0.114815
       1      -1     -12        0.000000        0.994987        0.035821
      -1      -1      12        0.000000        0.866025        0.072300
       1      -1     -12        0.000000        1.090871        0.095884
       1       1     -12        0.000000        1.004988        0.110560
       0      -1      12        0.000000        2.063977        0.068983
       0      -1     -12        0.000000        2.073644        0.083669
       0      -1     -12        0.000000        2.056696        0.056696
       0      -1      12        0.000000        2.184033        0.058004
       0       1     -12        0.000000        2.095233        0.087747
       0       1     -12        0.000000        2.137756        0.052090
      -1      -1     -12        0.000000        4.322037        0.106589
      -1      -1     -12        0.000000        4.272002        0.099473
      -1       1     -12        0.000000        4.496665        0.109183
      -1       1     -12        0.000000        4.353160        0.097575
      -2      -1     -12        0.000000        0.655744        0.197486
      -2      -1     -12        0.000000        0.412311        0.270889
      -2      -1     -12        0.000000        0.670820        0.170820
       2      -1      12        0.000000        0.447214        0.223607
      -2       1     -12        0.000000        0.591608        0.133350
      -2       1     -12        0.000000        0.519615        0.296008
       3      -1      12        0.000000        0.670820        0.170820
      -3      -1     -12        0.000000        0.547723        0.547723
      -3      -1     -12        0.000000        0.830662        0.130662
      -3       1     -12        0.000000        0.734847        0.388437
      -3       1     -12        0.000000        0.640312        0.193099
       4      -1      12        0.000000        1.615549        0.132310
      -4      -1     -12        0.000000        1.630951        0.127621
      -4       1     -12        0.000000        0.685565        0.685565
      -4       1     -12        0.000000        1.772005        0.119733
       4       1      12        0.000000        1.729162        0.113612
      -5      -1     -12        0.000000        0.600000        0.600000
      -5      -1     -12        0.000000        1.109054        1.109054
      -5       1     -12        0.000000        0.728011        0.728011
      -5       1     -12        0.000000        0.969536        0.276716
      -5      -2      12        0.000000        3.284814        0.165519
      -4      -2      12        0.000000        0.866025        0.233570
       4       2     -12        0.000000        0.748331        0.748331
      -4       2      12        0.000000        0.469042        0.469042
       3      -2     -12        0.000000        5.685948        0.127171
      -3      -2      12        0.000000        5.613377        0.129765
      -3      -2      12        0.000000        5.350701        0.120978
       3       2     -12        0.000000        5.400000        0.146430
      -3       2      12        0.000000        5.632051        0.121153
      -2      -2      12        0.000000        9.250946        0.186731
      -2      -2      12        0.000000        9.404786        0.177652
       2      -2     -12        0.000000        9.174966        0.183303
       2      -2     -12        0.000000        9.338629        0.187673
      -2      -2      12        0.000000        9.047652        0.191016
      -2      -2      12        0.000000        9.147131        0.184430
      -2       2      12        0.000000        9.159148        0.183626
       2       2     -12        0.000000        9.073037        0.198354
       2       2     -12        0.000000        8.941476        0.188763
      -2       2      12        0.000000        9.162423        0.185230
      -1      -2      12        0.000000        4.932545        0.103466
       1      -2     -12        0.000000        4.503332        0.131834
      -1      -2      12        0.000000        5.112729        0.093765
       1       2     -12        0.000000        4.743416        0.126058
       0      -2     -12        0.000000        0.927362        0.108827
       0      -2      12        0.000000        0.781025        0.088205
       0      -2     -12        0.000000        0.721110        0.073036
       0      -2      12        0.000000        0.830662        0.082331
       0       2      12        0.000000        0.812404        0.070784
      -1      -2     -12        0.000000        1.794436        0.103282
      -1      -2     -12        0.000000        1.800000        0.065065
       1      -2      12        0.000000        1.918333        0.074424
      -1       2     -12        0.000000        1.587451        0.159165
      -1       2     -12        0.000000        1.881489        0.062148
      -2      -2     -12        0.000000        4.149699        0.142206
      -2      -2     -12        0.000000        3.885872        0.101694
       2      -2      12        0.000000        4.019950        0.099491
      -2      -2     -12        0.000000        4.059557        0.098496
      -2       2     -12        0.000000        3.974921        0.118757
      -2       2     -12        0.000000        4.095119        0.096369
      -3      -2     -12        0.000000        2.083267        0.098323
      -3      -2     -12        0.000000        1.944222        0.108466
      -3      -2     -12        0.000000        2.097618        0.176680
       3      -2      12        0.000000        2.027313        0.098583
      -3       2     -12        0.000000        2.147091        0.172249
      -3       2     -12        0.000000        2.068816        0.088917
       4      -2      12        0.000000        1.791647        0.118327
      -4      -2     -12        0.000000        1.734935        0.141197
      -4      -2     -12        0.000000        1.571623        0.290999
      -4       2     -12        0.000000        1.772005        0.122762
       4       2      12        0.000000        1.802776        0.120515
      -4       2     -12        0.000000        0.648074        0.648074
      -5      -2     -12        0.000000        2.517936        0.149392
      -5       2     -12        0.000000        2.256103        0.158485
      -5      -3      12        0.000000        2.807134        0.168953
      -4      -3      12        0.000000        4.095119        0.134059
      -4       3      12        0.000000        4.334743        0.183840
      -3      -3      12        0.000000        3.128898        0.112277
       3      -3     -12        0.000000        3.246537        0.106473
      -3       3      12        0.000000        2.988311        0.091761
      -3       3      12        0.000000        3.240370        0.156542
       3       3     -12        0.000000        3.132092        0.152159
      -2      -3      12        0.000000        4.817676        0.108111
       2      -3     -12        0.000000        4.807286        0.121136
      -2      -3      12        0.000000        4.782259        0.116426
      -2      -3      12        0.000000        4.938623        0.102302
      -2       3      12        0.000000        4.951767        0.102025
       2       3     -12        0.000000        4.829079        0.136531
      -2       3      12        0.000000        4.944694        0.132210
       1      -3     -12        0.000000        9.785704        0.208648
       1       3     -12        0.000000       10.055844        0.210033
       0      -3     -12        0.000000        4.213075        0.096037
       0      -3      12        0.000000        4.275512        0.101784
       0      -3     -12        0.000000        4.226109        0.095734
       0      -3     -12        0.000000        4.339355        0.108516
       0       3      12        0.000000        4.291853        0.094234
       0       3     -12        0.000000        4.604346        0.132210
       1      -3      12        0.000000        2.123676        0.081618
      -1      -3     -12        0.000000        2.165641        0.072796
      -1      -3     -12        0.000000        2.126029        0.093789
      -1       3     -12        0.000000        2.213594        0.181354
      -2      -3     -12        0.000000        2.934280        0.082965
       2      -3      12        0.000000        2.910326        0.090752
      -2      -3     -12        0.000000        3.067572        0.087639
      -2      -3     -12        0.000000        2.901724        0.231518
      -2      -3     -12        0.000000        2.984962        0.086687
      -2      -3     -12        0.000000        2.851315        0.094506
      -2       3     -12        0.000000        3.029851        0.114376
      -3      -3     -12        0.000000        3.979950        0.106966
       3      -3      12        0.000000        3.958535        0.107561
      -3      -3     -12        0.000000        4.043513        0.110321
      -3       3     -12        0.000000        4.059557        0.146757
      -4      -3     -12        0.000000        1.905256        0.138904
       4      -3      12        0.000000        2.149419        0.114720
      -4      -3     -12        0.000000        2.184033        0.120056
      -5      -3     -12        0.000000        1.529706        0.206830
      -5       3     -12        0.000000        1.367479        0.784384
      -4      -4      12        0.000000        0.848528        0.319378
       4       4     -12        0.000000        1.658312        0.483578
      -4       4      12        0.000000        0.346410        0.721298
       3      -4     -12        0.000000        3.310589        0.116845
      -3      -4      12        0.000000        3.238827        0.092400
      -3      -4      12        0.000000        3.310589        0.110589
      -3      -4      12        0.000000        3.009983        0.096223
      -3       4      12        0.000000        3.576311        0.151402
       3       4     -12        0.000000        2.640076        0.219332
      -2      -4      12        0.000000        2.988311        0.095215
      -2      -4      12        0.000000        2.969848        0.085407
      -2      -4      12        0.000000        2.984962        0.076354
       2      -4     -12        0.000000        2.773085        0.110380
      -2       4      12        0.000000        2.988311        0.131739
      -1      -4      12        0.000000        3.601389        0.091403
       1      -4     -12        0.000000        3.604164        0.108453
       0      -4      12        0.000000       10.025468        0.205081
       0      -4     -12        0.000000        9.980481        0.210629
       0       4      12        0.000000       10.090094        0.199189
      -1      -4     -12        0.000000        1.500000        0.085786
       1      -4      12        0.000000        1.691153        0.088031
      -1      -4     -12        0.000000        1.506652        0.117408
      -1       4     -12        0.000000        1.300000        0.315114
       2      -4      12        0.000000        1.967232        0.096403
      -2      -4     -12        0.000000        1.972308        0.093479
      -2      -4     -12        0.000000        1.936492        0.087167
      -2      -4     -12        0.000000        2.063977        0.109495
      -2       4     -12        0.000000        1.881489        0.143674
       3      -4      12        0.000000        2.570992        0.101174
      -3      -4     -12        0.000000        2.570992        0.107255
      -3      -4     -12        0.000000        2.555386        0.101818
      -3       4     -12        0.000000        2.531798        0.165366
      -4      -4     -12        0.000000        3.333167        0.119135
      -4      -4     -12        0.000000        3.370460        0.133177
       4      -4      12        0.000000        3.588872        0.120443
      -4       5      12        0.000000        0.974679        0.974679
      -3      -5      12        0.000000        0.959166        0.171766
      -3      -5      12        0.000000        0.938083        0.157058
       3      -5     -12        0.000000        0.900000        0.236675
      -3      -5      12        0.000000        0.989949        0.215353
      -3       5      12        0.000000        1.374773        0.369785
       2      -5     -12        0.000000        2.144761        0.132300
      -2      -5      12        0.000000        2.295648        0.093377
      -2      -5      12        0.000000        2.273763        0.103510
      -2      -5      12        0.000000        2.336664        0.078346
      -2       5      12        0.000000        2.269361        0.164605
       2       5     -12        0.000000        1.788854        0.295536
      -1      -5      12        0.000000        2.900000        0.092866
       1      -5     -12        0.000000        2.927456        0.113207
      -1      -5      12        0.000000        2.968164        0.088928
       1       5     -12        0.000000        2.800000        0.225121
      -1       5      12        0.000000        2.912044        0.104910
       0      -5     -12        0.000000        1.153256        0.143306
       0      -5      12        0.000000        1.081665        0.112129
       0       5     -12        0.000000        0.608276        0.608276
       0       5      12        0.000000        1.039230        0.080064
      -1      -5     -12        0.000000        8.101234        0.176589
      -1      -5     -12        0.000000        8.120345        0.168615
       1      -5      12        0.000000        8.069077        0.172875
      -2      -5     -12        0.000000        0.608276        0.343701
       2      -5      12        0.000000        0.678233        0.198650
      -2      -5     -12        0.000000        0.741620        0.150012
      -2      -5     -12        0.000000        0.632456        0.232456
      -2       5     -12        0.000000        0.964365        0.243255
       3      -5      12        0.000000        1.894730        0.119906
      -3      -5     -12        0.000000        1.979899        0.119791
      -3      -5     -12        0.000000        1.994994        0.113505
      -3       5     -12        0.000000        2.056696        0.199279
      -4      -5     -12        0.000000        3.200000        0.135689
       4      -5      12        0.000000        2.920616        0.143928
      -4      -5     -12        0.000000        2.963106        0.138217
      -4      -6      12        0.000000        0.800000        0.555051
      -4       6      12        0.000000        1.479865        0.500069
       4       6     -12        0.000000        1.330413        1.330413
      -3      -6      12        0.000000        0.648074        0.403125
       3       6     -12        0.000000        1.410674        0.623273
      -2      -6      12        0.000000        0.905539        0.170692
      -2      -6      12        0.000000        1.183216        0.153653
       2      -6     -12        0.000000        0.830662        0.273886
      -2       6      12        0.000000        1.140175        0.365579
       2       6     -12        0.000000        1.140175        0.752877
      -1      -6      12        0.000000        0.624500        0.212189
       1      -6     -12        0.000000        0.608276        0.343701
      -1      -6      12        0.000000        0.458258        0.358258
      -1       6      12        0.000000        0.412311        0.412311
       0      -6     -12        0.000000        1.989975        0.137949
       0      -6      12        0.000000        2.202272        0.097515
       0       6     -12        0.000000        1.240967        0.533861
      -1      -6     -12        0.000000        0.316228        0.316228
      -1      -6     -12        0.000000        0.500000        0.500000
       2      -6      12        0.000000        7.017834        0.157805
      -2      -6     -12        0.000000        7.140028        0.158624
      -2      -6     -12        0.000000        6.894926        0.153264
      -2      -6     -12        0.000000        7.185402        0.151911
      -2       6     -12        0.000000        6.880407        0.179661
      -3      -6     -12        0.000000        1.157584        0.203644
       3      -6      12        0.000000        1.086278        0.214498
      -3      -6     -12        0.000000        1.646208        0.146208
      -3       6     -12        0.000000        1.438749        0.316252
      -4      -6     -12        0.000000        0.663325        0.663325
      -4       6     -12        0.000000        0.374166        0.752777
      -4      -7      12        0.000000        3.293934        0.189099
      -4       7      12        0.000000        3.541186        0.279285
      -3      -7      12        0.000000        1.431782        0.186792
      -3      -7      12        0.000000        1.720465        0.174503
       3      -7     -12        0.000000        1.516575        0.212735
       3       7     -12        0.000000        0.943398        0.943398
      -2      -7      12        0.000000        0.761577        0.445350
      -2      -7      12        0.000000        0.754983        0.245081
      -2       7      12        0.000000        0.000000        0.905539
      -1      -7      12        0.000000        0.479583        0.479583
       1      -7     -12        0.000000        0.608276        0.608276
      -1      -7      12        0.000000        0.529150        0.529150
       0      -7     -12        0.000000        0.663325        0.380482
       1      -7      12        0.000000        2.509980        0.114150
      -1      -7     -12        0.000000        2.381176        0.147345
      -1      -7     -12        0.000000        2.351595        0.099929
      -2      -7     -12        0.000000        3.155947        0.101442
      -2      -7     -12        0.000000        3.100000        0.110017
      -2      -7     -12        0.000000        2.937686        0.144838
       2      -7      12        0.000000        2.944486        0.123139
      -2       7     -12        0.000000        3.062679        0.164403
      -3      -7     -12        0.000000        3.663332        0.134876
      -3      -7     -12        0.000000        3.793415        0.123265
       3      -7      12        0.000000        3.634556        0.131700
      -3       7     -12        0.000000        3.704052        0.198342
      -4      -7     -12        0.000000        0.964365        0.347924
      -3      -8      12        0.000000        2.998333        0.168139
       3      -8     -12        0.000000        3.127299        0.196429
      -2      -8      12        0.000000        2.570992        0.150248
      -2      -8      12        0.000000        2.803569        0.148386
       2      -8     -12        0.000000        2.672078        0.206312
      -1      -8      12        0.000000        0.331662        0.353903
      -1      -8      12        0.000000        0.655744        0.391169
       0      -8      12        0.000000        1.063015        0.185518
       0      -8      12        0.000000        0.877496        0.214171
       0      -8     -12        0.000000        0.938083        0.274758
       1      -8      12        0.000000        3.091925        0.123761
      -1      -8     -12        0.000000        2.996665        0.110491
      -1      -8     -12        0.000000        2.991655        0.163228
      -2      -8     -12        0.000000        0.282843        0.387978
      -2       8     -12        0.000000        0.768115        0.768115
       3      -8      12        0.000000        2.455606        0.155606
      -3      -8     -12        0.000000        2.600000        0.150510
      -3       8     -12        0.000000        2.489980        0.274128
       2      -9     -12        0.000000        3.284814        0.205853
      -2      -9      12        0.000000        3.301515        0.123465
      -2      -9      12        0.000000        3.200000        0.178411
      -2      -9      12        0.000000        3.373426        0.168741
       1      -9     -12        0.000000        4.768648        0.169735
      -1      -9      12        0.000000        4.659399        0.138337
      -1      -9      12        0.000000        4.547527        0.144119
       0      -9      12        0.000000        2.056696        0.161967
       0      -9     -12        0.000000        2.315167        0.186788
      -1      -9     -12        0.000000        0.316228        0.376593
       1      -9      12        0.000000        0.316228        0.418619
       2      -9      12        0.000000        1.926136        0.176850
      -2      -9     -12        0.000000        1.797220        0.163207
      -2       9     -12        0.000000        1.854724        0.302306
      -1     -10      12        0.000000        1.288410        0.288410
       0     -10     -12        0.000000        3.240370        0.215474
       0     -10      12        0.000000        3.109662        0.173679
      -5       0      13        0.000000        2.256103        0.168042
      -4       0      13        0.000000        0.591608        0.450187
       4       0     -13        0.000000        0.608276        0.608276
       3       0     -13        0.000000        0.905539        0.170692
      -3       0      13        0.000000        0.663325        0.183742
      -2       0      13        0.000000        0.100000        0.182843
      -2       0      13        0.000000        0.244949        0.255051
       2       0     -13        0.000000        0.223607        0.266291
      -1       0      13        0.000000       12.423365        0.246338
       0       0     -13        0.000000        0.435890        0.075335
       0       0      13        0.000000        0.360555        0.115606
       0       0      13        0.000000        0.519615        0.095351
       0       0     -13        0.000000        0.632456        0.142558
      -1       0     -13        0.000000        1.873499        0.098675
      -1       0     -13        0.000000        1.813836        0.064550
       1       0      13        0.000000        1.841195        0.072015
      -2       0     -13        0.000000        0.500000        0.326795
       2       0      13        0.000000        0.000000        0.374166
      -2       0     -13        0.000000        0.447214        0.447214
      -2       0     -13        0.000000        0.173205        0.187350
       3       0      13        0.000000        2.368544        0.096981
      -3       0     -13        0.000000        2.319483        0.096872
      -4       0     -13        0.000000        0.424264        0.565685
      -5       0     -13        0.000000        0.200000        0.521110
      -5      -1      13        0.000000        1.931321        0.170639
      -5       1      13        0.000000        1.897367        0.171099
      -4      -1      13        0.000000        1.545962        0.149538
      -4       1      13        0.000000        1.244990        0.158712
       4       1     -13        0.000000        1.224745        0.260380
       3      -1     -13        0.000000        6.542935        0.149188
      -3      -1      13        0.000000        6.552862        0.147396
      -3       1      13        0.000000        6.615134        0.142886
       3       1     -13        0.000000        6.654322        0.152784
      -2      -1      13        0.000000        3.283291        0.092680
      -2      -1      13        0.000000        3.300000        0.090639
       2      -1     -13        0.000000        3.334666        0.069701
      -2      -1      13        0.000000        3.328663        0.075972
       2      -1     -13        0.000000        3.325658        0.099205
      -2       1      13        0.000000        3.360060        0.084392
      -2       1      13        0.000000        3.352611        0.075417
      -2       1      13        0.000000        3.274141        0.075704
       2       1     -13        0.000000        3.238827        0.109929
      -1      -1      13        0.000000        4.180909        0.093122
       1      -1     -13        0.000000        4.170132        0.083569
       1       1     -13        0.000000        4.079216        0.114370
       0      -1      13        0.000000        6.828616        0.143558
       0      -1      13        0.000000        6.999286        0.137070
       0      -1     -13        0.000000        6.805880        0.140297
       0       1     -13        0.000000        6.830081        0.139042
       1      -1      13        0.000000        0.435890        0.153047
      -1      -1     -13        0.000000        0.519615        0.187953
      -1      -1     -13        0.000000        0.300000        0.300000
      -1       1     -13        0.000000        0.424264        0.124264
      -2      -1     -13        0.000000        0.173205        0.251059
      -2       1     -13        0.000000        0.173205        0.336697
      -3      -1     -13        0.000000        0.435890        0.435890
       3      -1      13        0.000000        0.000000        0.435890
      -3      -1     -13        0.000000        0.648074        0.648074
      -3       1     -13        0.000000        0.400000        0.400000
      -4      -1     -13        0.000000        0.447214        0.547774
       4      -1      13        0.000000        0.648074        0.348074
      -4      -1     -13        0.000000        1.100000        0.167262
      -4       1     -13        0.000000        0.761577        0.241962
      -4       1     -13        0.000000        0.547723        0.547723
       4       1      13        0.000000        0.943398        0.195067
      -5      -2      13        0.000000        0.812404        0.512404
       4       2     -13        0.000000        1.941649        0.189507
      -4       2      13        0.000000        2.351595        0.113292
       3      -2     -13        0.000000        3.398529        0.106114
      -3      -2      13        0.000000        3.391165        0.106351
      -3       2      13        0.000000        3.448188        0.094086
       3       2     -13        0.000000        3.223352        0.142768
       2      -2     -13        0.000000        4.275512        0.107778
      -2      -2      13        0.000000        4.248529        0.102447
      -2      -2      13        0.000000        4.427189        0.083227
      -2      -2      13        0.000000        4.092676        0.096428
       2      -2     -13        0.000000        4.176123        0.092007
       2       2     -13        0.000000        4.125530        0.124280
      -2       2      13        0.000000        4.125530        0.094401
      -2       2      13        0.000000        4.118252        0.097058
       1      -2     -13        0.000000        2.395830        0.089317
      -1      -2      13        0.000000        2.273763        0.073763
      -1      -2      13        0.000000        2.461707        0.055465
       1       2     -13        0.000000        2.282542        0.109986
       0      -2      13        0.000000        2.107131        0.067523
       0      -2     -13        0.000000        2.063977        0.061478
       0      -2     -13        0.000000        2.061553        0.086711
       0      -2     -13        0.000000        2.071232        0.083771
       0       2     -13        0.000000        2.073644        0.101336
      -1      -2     -13        0.000000        3.714835        0.099590
      -1      -2     -13        0.000000        3.690528        0.090528
      -1      -2     -13        0.000000        3.716181        0.087131
       1      -2      13        0.000000        3.766962        0.092727
      -2      -2     -13        0.000000        0.458258        0.458258
      -2      -2     -13        0.000000        0.685565        0.128789
       2      -2      13        0.000000        0.632456        0.152872
      -2       2     -13        0.000000        0.692820        0.234563
      -2       2     -13        0.000000        0.692820        0.118364
      -3      -2     -13        0.000000        0.728011        0.198861
      -3      -2     -13        0.000000        0.538516        0.538516
       3      -2      13        0.000000        0.663325        0.205067
      -3       2     -13        0.000000        1.053565        0.126204
      -3       2     -13        0.000000        0.800000        0.375736
      -4      -2     -13        0.000000        0.600000        0.600000
       4      -2      13        0.000000        0.244949        0.346659
       4       2      13        0.000000        0.547723        0.547723
      -5      -2     -13        0.000000        1.819341        0.194533
      -5       2     -13        0.000000        1.808314        0.177363
      -5       2     -13        0.000000        1.153256        1.153256
      -5      -3      13        0.000000        0.921954        0.521954
      -4      -3      13        0.000000        0.741620        0.381065
       4       3     -13        0.000000        1.330413        0.413898
       3      -3     -13        0.000000        0.435890        0.435890
      -3      -3      13        0.000000        0.538516        0.206854
      -3       3      13        0.000000        1.009950        0.302844
       3       3     -13        0.000000        0.591608        0.591608
      -3       3      13        0.000000        0.435890        0.435890
      -2      -3      13        0.000000        0.282843        0.282843
       2      -3     -13        0.000000        0.707107        0.159384
      -2      -3      13        0.000000        0.529150        0.154985
      -2      -3      13        0.000000        0.100000        0.312311
       2       3     -13        0.000000        0.424264        0.424264
      -2       3      13        0.000000        0.424264        0.179315
       1      -3     -13        0.000000        6.726812        0.155663
      -1      -3      13        0.000000        6.862944        0.145057
       1       3     -13        0.000000        7.114071        0.158497
       0      -3     -13        0.000000        4.017462        0.093179
       0      -3     -13        0.000000        4.324350        0.089967
       0      -3      13        0.000000        4.009988        0.099745
       0      -3     -13        0.000000        4.009988        0.108706
       0       3      13        0.000000        4.109745        0.091038
      -1      -3     -13        0.000000        0.700000        0.108392
      -1      -3     -13        0.000000        1.029563        0.124025
       1      -3      13        0.000000        0.728011        0.128011
      -1       3     -13        0.000000        0.655744        0.655744
      -2      -3     -13        0.000000        2.765863        0.086311
      -2      -3     -13        0.000000        2.515949        0.091078
       2      -3      13        0.000000        2.555386        0.091649
      -2       3     -13        0.000000        2.701851        0.123092
      -3      -3     -13        0.000000        0.894427        0.132850
      -3      -3     -13        0.000000        0.994987        0.170366
       3      -3      13        0.000000        0.616441        0.229143
      -3       3     -13        0.000000        0.761577        0.349267
       4      -3      13        0.000000        0.670820        0.354593
      -4      -3     -13        0.000000        0.678233        0.395390
      -5      -3     -13        0.000000        1.034408        0.363588
      -5      -4      13        0.000000        1.330413        0.350618
      -4      -4      13        0.000000        1.204159        0.214210
       4       4     -13        0.000000        1.500000        0.588957
      -4       4      13        0.000000        1.915724        0.312602
      -3      -4      13        0.000000        0.374166        0.374166
      -3      -4      13        0.000000        0.707107        0.294796
       3      -4     -13        0.000000        0.624500        0.308272
      -3       4      13        0.000000        1.081665        0.374559
      -2      -4      13        0.000000        1.170470        0.098089
      -2      -4      13        0.000000        1.140175        0.077161
       2      -4     -13        0.000000        1.034408        0.145589
      -2      -4      13        0.000000        0.927362        0.133636
       2       4     -13        0.000000        1.170470        0.298690
      -2       4      13        0.000000        1.170470        0.211304
       1      -4     -13        0.000000        0.374166        0.374166
      -1       4      13        0.000000        0.173205        0.173205
       1       4     -13        0.000000        0.648074        0.648074
       0      -4     -13        0.000000        8.930286        0.195298
       0      -4      13        0.000000        9.115920        0.186754
       0       4      13        0.000000        9.164060        0.180186
      -1      -4     -13        0.000000        4.244997        0.098915
       1      -4      13        0.000000        4.152108        0.106122
      -1      -4     -13        0.000000        4.188078        0.113769
      -1       4     -13        0.000000        4.190465        0.185468
       2      -4      13        0.000000        1.862794        0.102112
      -2      -4     -13        0.000000        1.992486        0.116320
      -2      -4     -13        0.000000        1.979899        0.095755
      -2       4     -13        0.000000        1.923538        0.137481
      -3      -4     -13        0.000000        0.678233        0.265922
       3      -4      13        0.000000        0.692820        0.213237
      -3      -4     -13        0.000000        0.529150        0.305543
      -3       4     -13        0.000000        0.282843        0.498182
      -4      -4     -13        0.000000        0.479583        0.479583
      -4      -4     -13        0.000000        0.806226        0.326643
       4      -4      13        0.000000        0.583095        0.583095
      -4      -5      13        0.000000        1.178983        0.262467
       4       5     -13        0.000000        0.911043        0.911043
      -4       5      13        0.000000        1.811077        0.386296
      -3      -5      13        0.000000        0.435890        0.435890
      -3       5      13        0.000000        0.818535        0.818535
      -2      -5      13        0.000000        0.538516        0.273941
      -2      -5      13        0.000000        0.591608        0.231053
      -2      -5      13        0.000000        0.458258        0.234651
      -2       5      13        0.000000        0.774597        0.442934
       2       5     -13        0.000000        0.959166        0.859166
      -1      -5      13        0.000000        2.687006        0.088930
       1      -5     -13        0.000000        2.572936        0.119367
      -1      -5      13        0.000000        2.738613        0.085313
       1       5     -13        0.000000        2.128380        0.233650
       0      -5     -13        0.000000        0.685565        0.175664
       0      -5      13        0.000000        0.435890        0.435890
      -1      -5     -13        0.000000        8.746999        0.179619
       1      -5      13        0.000000        8.679286        0.183993
      -1      -5     -13        0.000000        8.691375        0.187846
      -2      -5     -13        0.000000        5.368426        0.132970
      -2      -5     -13        0.000000        5.309426        0.128692
      -2      -5     -13        0.000000        5.404628        0.120690
       2      -5      13        0.000000        5.507268        0.127677
      -2       5     -13        0.000000        5.273519        0.151996
       3      -5      13        0.000000        1.392839        0.139842
      -3      -5     -13        0.000000        1.367479        0.130548
      -3      -5     -13        0.000000        1.260952        0.170081
      -3       5     -13        0.000000        1.144552        0.301937
      -4      -5     -13        0.000000        1.288410        0.174857
       4      -5      13        0.000000        1.300000        0.213722
      -4      -5     -13        0.000000        1.292285        0.219904
      -4       5     -13        0.000000        1.452584        0.477904
       4       6     -13        0.000000        1.445683        1.304262
      -4       6      13        0.000000        0.640312        0.686337
      -3      -6      13        0.000000        2.167948        0.143103
      -3      -6      13        0.000000        1.630951        0.144344
       3      -6     -13        0.000000        1.529706        0.188065
       3       6     -13        0.000000        1.356466        0.773371
      -3       6      13        0.000000        2.244994        0.230050
      -2      -6      13        0.000000        0.787401        0.204306
       2      -6     -13        0.000000        0.721110        0.308800
      -2      -6      13        0.000000        0.842615        0.179290
      -2       6      13        0.000000        0.714143        0.714143
       2       6     -13        0.000000        0.678233        0.678233
      -1      -6      13        0.000000        0.781025        0.164584
       1      -6     -13        0.000000        0.547723        0.547723
      -1      -6      13        0.000000        0.768115        0.211338
       1       6     -13        0.000000        0.959166        0.714217
       0      -6      13        0.000000        2.592296        0.100309
       0      -6     -13        0.000000        2.655184        0.123386
       0       6     -13        0.000000        1.928730        0.316279
      -1      -6     -13        0.000000        0.700000        0.152277
       1      -6      13        0.000000        0.469042        0.469042
      -1      -6     -13        0.000000        0.721110        0.252069
       2      -6      13        0.000000        5.989992        0.142770
      -2      -6     -13        0.000000        6.105735        0.138324
      -2      -6     -13        0.000000        6.112283        0.145709
      -2       6     -13        0.000000        5.932116        0.166702
      -3      -6     -13        0.000000        6.361604        0.142279
       3      -6      13        0.000000        6.349016        0.146597
      -3      -6     -13        0.000000        6.082763        0.154019
      -3       6     -13        0.000000        6.168468        0.190174
       4      -6      13        0.000000        1.749286        0.209805
      -4      -6     -13        0.000000        1.705872        0.209209
      -4      -6     -13        0.000000        1.913113        0.169553
      -4       6     -13        0.000000        1.788854        0.421375
      -4       7      13        0.000000        2.447448        0.410293
      -3      -7      13        0.000000        1.407125        0.223909
       3      -7     -13        0.000000        0.761577        0.620156
      -3      -7      13        0.000000        1.307670        0.235289
      -3       7      13        0.000000        1.264911        0.806653
      -2      -7      13        0.000000        2.727636        0.131485
      -2      -7      13        0.000000        2.803569        0.118425
       2      -7     -13        0.000000        2.814249        0.157183
       2       7     -13        0.000000        1.900000        0.403337
      -2       7      13        0.000000        2.762245        0.228474
      -1      -7      13        0.000000        0.519615        0.519615
      -1      -7      13        0.000000        0.509902        0.509902
       1      -7     -13        0.000000        0.200000        0.521110
       1       7     -13        0.000000        0.331662        0.921334
       0      -7     -13        0.000000        0.223607        0.392835
       0      -7      13        0.000000        0.223607        0.350849
       1      -7      13        0.000000        0.331662        0.331662
      -1      -7     -13        0.000000        1.039230        0.144803
      -1      -7     -13        0.000000        0.640312        0.416706
      -2      -7     -13        0.000000        2.061553        0.127645
      -2      -7     -13        0.000000        2.170253        0.150352
       2      -7      13        0.000000        2.068816        0.134908
      -2       7     -13        0.000000        2.163331        0.191022
      -3      -7     -13        0.000000        4.968903        0.137754
       3      -7      13        0.000000        4.768648        0.145878
      -3      -7     -13        0.000000        4.913247        0.128898
      -3       7     -13        0.000000        4.808326        0.192051
       3      -8     -13        0.000000        1.843909        0.240787
      -3      -8      13        0.000000        2.284732        0.184732
       2      -8     -13        0.000000        1.435270        0.226965
      -2      -8      13        0.000000        1.634013        0.164320
      -2      -8      13        0.000000        1.410674        0.214848
      -1      -8      13        0.000000        1.483240        0.160364
      -1      -8      13        0.000000        1.860108        0.145465
       1      -8     -13        0.000000        1.637071        0.198321
       0      -8      13        0.000000        0.921954        0.243721
       0      -8      13        0.000000        0.264575        0.367880
      -1      -8     -13        0.000000        1.431782        0.198899
      -1      -8     -13        0.000000        1.688194        0.119756
       1      -8      13        0.000000        1.424781        0.159870
      -2      -8     -13        0.000000        0.616441        0.516441
      -2       8     -13        0.000000        0.316228        0.561269
       3      -8      13        0.000000        1.039230        0.360997
      -3      -8     -13        0.000000        0.974679        0.342224
      -3       8     -13        0.000000        1.195826        0.595826
      -2      -9      13        0.000000        1.191638        0.280594
      -2      -9      13        0.000000        0.969536        0.412760
      -2      -9      13        0.000000        1.019804        0.271472
       2      -9     -13        0.000000        0.707107        0.707107
      -1      -9      13        0.000000        1.519868        0.185702
       1      -9     -13        0.000000        0.830662        0.689241
      -1      -9      13        0.000000        1.462874        0.205893
       0      -9      13        0.000000        0.200000        0.521110
       0      -9      13        0.000000        0.700000        0.700000
       1      -9      13        0.000000        0.447214        0.447214
      -1       9     -13        0.000000        0.500000        0.500000
      -2      -9     -13        0.000000        1.303840        0.208395
       2      -9      13        0.000000        1.195826        0.257743
      -2       9     -13        0.000000        1.407125        0.382430
      -1     -10      13        0.000000        1.034408        0.468723
       0     -10      13        0.000000        1.907878        0.204940
      -1      10     -13        0.000000        0.447214        0.666339
      -5       0      14        0.000000        0.200000        0.561577
      -4       0      14        0.000000        0.911043        0.211043
       4       0     -14        0.000000        0.888819        0.350303
       3       0     -14        0.000000        0.100000        0.419615
      -3       0      14        0.000000        0.374166        0.374166
      -2       0      14        0.000000        1.292285        0.083980
      -2       0      14        0.000000        1.367479        0.063639
       2       0     -14        0.000000        1.349074        0.108106
      -2       0      14        0.000000        1.232883        0.119330
       0       0      14        0.000000        6.238590        0.120583
       0       0      14        0.000000        6.031584        0.129042
       0       0     -14        0.000000        6.000000        0.125479
       0       0     -14        0.000000        6.000000        0.139113
      -1       0     -14        0.000000        0.316228        0.216228
      -1       0     -14        0.000000        0.173205        0.285052
       1       0      14        0.000000        0.244949        0.244949
      -2       0     -14        0.000000        4.481071        0.119879
       2       0      14        0.000000        4.546427        0.107959
      -2       0     -14        0.000000        4.533211        0.106022
       3       0      14        0.000000        0.400000        0.400000
      -3       0     -14        0.000000        0.331662        0.331662
      -3       0     -14        0.000000        0.648074        0.648074
      -4       0     -14        0.000000        3.370460        0.117769
       4       0      14        0.000000        3.598611        0.115796
      -5      -1      14        0.000000        2.090454        0.169517
      -5       1      14        0.000000        2.049390        0.170561
       4      -1     -14        0.000000        5.620498        0.141447
      -4      -1      14        0.000000        5.326350        0.138865
      -4       1      14        0.000000        5.382379        0.134522
       4       1     -14        0.000000        5.281098        0.159575
       3      -1     -14        0.000000        0.469042        0.469042
       3       1     -14        0.000000        0.387298        0.387298
      -3       1      14        0.000000        0.173205        0.295836
      -2      -1      14        0.000000        2.603843        0.083923
       2      -1     -14        0.000000        2.664583        0.099431
      -2      -1      14        0.000000        2.567100        0.069100
      -2       1      14        0.000000        2.630589        0.065438
      -2       1      14        0.000000        2.555386        0.071438
       2       1     -14        0.000000        2.578759        0.108942
      -1      -1      14        0.000000        2.705550        0.073061
       1      -1     -14        0.000000        2.685144        0.058359
       1      -1     -14        0.000000        2.747726        0.088779
       1       1     -14        0.000000        2.565151        0.103444
       0      -1     -14        0.000000        5.812056        0.120835
       0      -1      14        0.000000        6.044005        0.116949
       0      -1      14        0.000000        5.820653        0.125918
       0      -1     -14        0.000000        5.809475        0.133209
       0       1     -14        0.000000        5.826663        0.119650
       0       1     -14        0.000000        5.711392        0.138242
      -1      -1     -14        0.000000        4.528797        0.102738
       1      -1      14        0.000000        4.515529        0.105313
      -1       1     -14        0.000000        4.602173        0.117756
      -1       1     -14        0.000000        4.448595        0.101182
      -2      -1     -14        0.000000        3.854867        0.098539
      -2      -1     -14        0.000000        3.758989        0.097023
      -2      -1     -14        0.000000        3.827532        0.108661
       2      -1      14        0.000000        3.712142        0.099664
      -2       1     -14        0.000000        3.588872        0.123327
      -2       1     -14        0.000000        3.758989        0.095657
      -2       1     -14        0.000000        3.716181        0.113404
      -3      -1     -14        0.000000        3.016621        0.102860
       3      -1      14        0.000000        3.059412        0.104754
      -3       1     -14        0.000000        2.908608        0.149985
       3       1      14        0.000000        3.077337        0.102442
      -3       1     -14        0.000000        3.179623        0.090934
       4      -1      14        0.000000        3.401470        0.122751
      -4      -1     -14        0.000000        3.462658        0.117512
      -4       1     -14        0.000000        3.413210        0.116241
       4       1      14        0.000000        3.552464        0.115896
      -5      -1     -14        0.000000        0.655744        0.655744
      -5       1     -14        0.000000        0.479583        0.785328
      -5      -2      14        0.000000        0.883176        0.470866
      -4      -2      14        0.000000        2.090454        0.143662
      -4       2      14        0.000000        2.130728        0.118266
       4       2     -14        0.000000        2.163331        0.185959
      -3      -2      14        0.000000        4.221374        0.114064
       3      -2     -14        0.000000        4.259108        0.114232
      -3       2      14        0.000000        4.196427        0.104973
       3       2     -14        0.000000        4.014972        0.140698
       2      -2     -14        0.000000        4.274342        0.113813
      -2      -2      14        0.000000        4.254409        0.107121
      -2      -2      14        0.000000        4.284857        0.096779
       2      -2     -14        0.000000        4.297674        0.092915
      -2      -2      14        0.000000        4.444097        0.085198
      -2       2      14        0.000000        4.372642        0.095961
       2       2     -14        0.000000        4.263801        0.127378
      -2       2      14        0.000000        4.338202        0.097919
       1      -2     -14        0.000000        0.509902        0.178239
      -1      -2      14        0.000000        0.663325        0.071717
       1      -2     -14        0.000000        0.547723        0.068139
      -1      -2      14        0.000000        0.509902        0.135736
       1       2     -14        0.000000        0.663325        0.205067
       0      -2      14        0.000000        1.870829        0.081974
       0      -2     -14        0.000000        1.969772        0.093605
       0      -2     -14        0.000000        1.987461        0.061325
       0      -2     -14        0.000000        1.979899        0.095755
       0      -2      14        0.000000        2.137756        0.068940
       0       2     -14        0.000000        2.051828        0.105036
      -1      -2     -14        0.000000        7.088723        0.150424
       1      -2      14        0.000000        7.180529        0.151305
      -1      -2     -14        0.000000        7.146328        0.147756
      -1      -2     -14        0.000000        7.163100        0.155247
      -1       2     -14        0.000000        7.211103        0.146402
       2      -2      14        0.000000        1.562050        0.099176
      -2      -2     -14        0.000000        1.694107        0.090985
      -2      -2     -14        0.000000        1.691153        0.103703
      -2       2     -14        0.000000        1.493318        0.136852
      -2       2     -14        0.000000        1.816590        0.084539
      -3      -2     -14        0.000000        0.000000        0.721110
      -3       2     -14        0.000000        0.100000        0.548074
      -3       2     -14        0.000000        0.583095        0.208929
       4      -2      14        0.000000        0.774597        0.284699
      -4      -2     -14        0.000000        1.000000        0.206275
      -4      -2     -14        0.000000        1.216553        0.769339
      -4       2     -14        0.000000        1.077033        0.182606
       4       2      14        0.000000        0.900000        0.236675
      -5      -2     -14        0.000000        2.360085        0.166914
      -5       2     -14        0.000000        2.376973        0.143142
      -4      -3      14        0.000000        0.574456        0.574456
       4       3     -14        0.000000        0.200000        0.743398
      -3      -3      14        0.000000        1.174734        0.145171
       3      -3     -14        0.000000        1.161895        0.137200
       3       3     -14        0.000000        1.109054        0.278391
       2      -3     -14        0.000000        6.316645        0.144935
      -2      -3      14        0.000000        6.452131        0.126786
      -2      -3      14        0.000000        6.283311        0.140022
      -2       3      14        0.000000        6.187891        0.141405
       2       3     -14        0.000000        6.362389        0.156747
       1      -3     -14        0.000000        3.945884        0.110522
      -1      -3      14        0.000000        4.066940        0.086990
      -1      -3      14        0.000000        3.987480        0.097750
       1       3     -14        0.000000        4.053394        0.125290
       0      -3     -14        0.000000        0.938083        0.077851
       0      -3     -14        0.000000        1.000000        0.128220
       0      -3     -14        0.000000        0.768115        0.127802
       0      -3      14        0.000000        1.067708        0.082822
       0       3     -14        0.000000        0.556776        0.556776
      -1      -3     -14        0.000000        0.374166        0.374166
      -1      -3     -14        0.000000        0.331662        0.331662
      -1       3     -14        0.000000        0.346410        0.478211
       2      -3      14        0.000000        1.593738        0.097075
      -2      -3     -14        0.000000        1.634013        0.097784
      -2      -3     -14        0.000000        1.624808        0.114841
      -2      -3     -14        0.000000        1.385641        0.116783
      -2       3     -14        0.000000        1.640122        0.150156
       3      -3      14        0.000000        2.374868        0.107712
      -3      -3     -14        0.000000        2.379075        0.107512
      -3       3     -14        0.000000        2.389561        0.162455
       4      -3      14        0.000000        0.800000        0.300000
      -4      -3     -14        0.000000        0.331662        0.382480
      -4       3     -14        0.000000        0.721110        0.721110
      -4      -4      14        0.000000        2.619160        0.145297
       4       4     -14        0.000000        1.777639        0.481491
       3      -4     -14        0.000000        0.447214        0.447214
      -3       4      14        0.000000        0.964365        0.464365
      -2      -4      14        0.000000        0.583095        0.170785
      -2      -4      14        0.000000        0.842615        0.087632
       2      -4     -14        0.000000        0.608276        0.276614
      -2      -4      14        0.000000        0.714143        0.157366
       2       4     -14        0.000000        1.024695        0.317588
      -1      -4      14        0.000000        6.266578        0.131433
       1      -4     -14        0.000000        6.186275        0.142270
      -1       4      14        0.000000        5.722762        0.130803
      -1       4      14        0.000000        6.288084        0.118805
       0      -4     -14        0.000000        2.529822        0.107014
       0      -4      14        0.000000        2.613427        0.089541
       0      -4     -14        0.000000        2.720294        0.072654
       0       4     -14        0.000000        2.493993        0.204888
       0       4      14        0.000000        2.607681        0.077859
      -1      -4     -14        0.000000        3.924283        0.109837
       1      -4      14        0.000000        3.742993        0.102939
      -1      -4     -14        0.000000        3.911521        0.094455
      -1       4     -14        0.000000        3.580503        0.190813
      -2      -4     -14        0.000000        2.269361        0.122270
       2      -4      14        0.000000        2.381176        0.096444
      -2      -4     -14        0.000000        2.364318        0.094957
      -2       4     -14        0.000000        2.267157        0.136429
      -3      -4     -14        0.000000        1.378405        0.129405
       3      -4      14        0.000000        1.296148        0.151596
      -3       4     -14        0.000000        1.272792        0.238384
       4      -4      14        0.000000        1.034408        0.247007
      -4      -4     -14        0.000000        1.330413        0.181501
      -4       4     -14        0.000000        0.943398        0.943398
       3      -5     -14        0.000000        1.300000        0.177503
      -3      -5      14        0.000000        1.264911        0.137968
      -3      -5      14        0.000000        1.435270        0.166412
       3       5     -14        0.000000        1.280625        0.680625
      -3       5      14        0.000000        2.076054        0.240298
      -2      -5      14        0.000000        0.264575        0.264575
      -2      -5      14        0.000000        0.173205        0.316693
      -2      -5      14        0.000000        0.479583        0.479583
       2      -5     -14        0.000000        0.223607        0.359488
       2       5     -14        0.000000        1.183216        0.476109
      -2       5      14        0.000000        0.800000        0.453590
      -1      -5      14        0.000000        0.565685        0.219275
       1      -5     -14        0.000000        0.678233        0.242343
       1       5     -14        0.000000        0.264575        0.657379
       0      -5      14        0.000000        1.621727        0.101859
       0      -5     -14        0.000000        1.711724        0.124273
       0       5     -14        0.000000        0.888819        0.888819
       1      -5      14        0.000000        0.316228        0.316228
      -2      -5     -14        0.000000        3.661967        0.119369
      -2      -5     -14        0.000000        3.726929        0.103395
       2      -5      14        0.000000        3.652396        0.109799
      -2       5     -14        0.000000        3.663332        0.137711
       3      -5      14        0.000000        0.479583        0.479583
      -3      -5     -14        0.000000        0.360555        0.360555
      -3       5     -14        0.000000        0.489898        0.489898
       4      -5      14        0.000000        1.627882        0.189133
      -4      -5     -14        0.000000        1.752142        0.186894
      -4       5     -14        0.000000        1.959592        0.304297
      -4      -6      14        0.000000        0.538516        0.538516
       4       6     -14        0.000000        1.118034        1.118034
      -4       6      14        0.000000        0.848528        0.848528
      -3      -6      14        0.000000        0.591608        0.591608
      -3      -6      14        0.000000        0.748331        0.374166
       3       6     -14        0.000000        0.707107        0.717674
      -3       6      14        0.000000        1.208305        0.508305
      -2      -6      14        0.000000        0.300000        0.308276
       2       6     -14        0.000000        0.888819        0.888819
      -1      -6      14        0.000000        3.154362        0.103133
       1      -6     -14        0.000000        3.255764        0.126867
      -1      -6      14        0.000000        3.307567        0.101323
       1       6     -14        0.000000        2.742262        0.264360
       0      -6      14        0.000000        2.073644        0.111502
       0      -6     -14        0.000000        2.009975        0.144499
       0       6     -14        0.000000        1.260952        0.560952
      -1      -6     -14        0.000000        1.646208        0.129633
       1      -6      14        0.000000        1.754993        0.111825
      -1      -6     -14        0.000000        1.685230        0.107257
       2      -6      14        0.000000        1.808314        0.123084
      -2      -6     -14        0.000000        1.606238        0.157100
      -2      -6     -14        0.000000        1.652271        0.152271
      -3      -6     -14        0.000000        2.402082        0.132721
       3      -6      14        0.000000        2.525866        0.146791
      -3       6     -14        0.000000        2.471841        0.204685
       4      -6      14        0.000000        0.608276        0.608276
      -4      -6     -14        0.000000        0.866025        0.505470
       4       7     -14        0.000000        0.994987        0.994987
      -4       7      14        0.000000        1.811077        0.578194
       3      -7     -14        0.000000        0.700000        0.700000
      -3      -7      14        0.000000        0.900000        0.370850
      -3       7      14        0.000000        1.161895        0.761895
      -2      -7      14        0.000000        0.836660        0.298144
      -2      -7      14        0.000000        1.048809        0.218146
       2      -7     -14        0.000000        0.979796        0.308976
      -1      -7      14        0.000000        1.691153        0.132308
       1      -7     -14        0.000000        1.396424        0.183988
      -1      -7      14        0.000000        1.746425        0.121617
       1       7     -14        0.000000        0.489898        0.722538
       0      -7      14        0.000000        1.774824        0.125582
      -1      -7     -14        0.000000        0.282843        0.387978
       1      -7      14        0.000000        0.591608        0.450187
      -1      -7     -14        0.000000        0.300000        0.300000
      -2      -7     -14        0.000000        2.355844        0.176394
      -2      -7     -14        0.000000        2.437212        0.122044
       2      -7      14        0.000000        2.229350        0.136505
      -2       7     -14        0.000000        2.244994        0.198045
       3      -7      14        0.000000        1.435270        0.182274
      -3      -7     -14        0.000000        1.170470        0.243108
      -3       7     -14        0.000000        1.400000        0.375305
      -2      -8      14        0.000000        1.992486        0.162185
      -2      -8      14        0.000000        2.068816        0.160938
      -1      -8      14        0.000000        0.374166        0.380818
      -1      -8      14        0.000000        0.663325        0.398750
       1      -8     -14        0.000000        0.346410        0.415167
       0      -8     -14        0.000000        1.000000        0.271989
       0      -8      14        0.000000        1.352775        0.169559
       0      -8      14        0.000000        0.994987        0.201262
      -1      -8     -14        0.000000        0.538516        0.538516
      -1      -8     -14        0.000000        0.244949        0.363327
       2      -8      14        0.000000        0.959166        0.295841
      -2      -8     -14        0.000000        0.774597        0.774597
      -2      -8     -14        0.000000        0.754983        0.367685
      -2       8     -14        0.000000        0.447214        0.547774
       3      -8      14        0.000000        1.516575        0.243783
      -3      -8     -14        0.000000        1.609348        0.271439
      -3       8     -14        0.000000        1.652271        0.399275
      -2      -9      14        0.000000        1.378405        0.233853
      -2      -9      14        0.000000        1.252996        0.314913
      -1      -9      14        0.000000        1.232883        0.253087
       1      -9     -14        0.000000        1.191638        0.337237
      -1      -9      14        0.000000        1.676305        0.186339
       0      -9     -14        0.000000        1.489966        0.248999
       0      -9      14        0.000000        1.462874        0.186159
       0      -9      14        0.000000        1.063015        0.294900
       1      -9      14        0.000000        1.852026        0.181697
      -1      -9     -14        0.000000        1.772005        0.147197
      -1      -9     -14        0.000000        1.256981        0.308297
      -1       9     -14        0.000000        1.700000        0.271714
       2      -9      14        0.000000        0.714143        0.714143
      -2       9     -14        0.000000        1.053565        0.606352
       0     -10     -14        0.000000        1.371131        0.213547
      -1      10     -14        0.000000        1.476482        0.708368
      -5       0      15        0.000000       10.777291        0.229305
      -4       0      15        0.000000        0.707107        0.332941
       2       0     -15        0.000000        0.346410        0.346410
      -2       0      15        0.000000        0.360555        0.219134
      -2       0      15        0.000000        0.346410        0.346410
      -1       0      15        0.000000        1.997498        0.066178
       1       0     -15        0.000000        2.063977        0.099288
       0       0     -15        0.000000        0.244949        0.244949
       0       0      15        0.000000        0.519615        0.095351
       1       0      15        0.000000        3.127299        0.087562
      -1       0     -15        0.000000        3.370460        0.102433
      -1       0     -15        0.000000        3.178050        0.082892
      -2       0     -15        0.000000        0.600000        0.500000
      -2       0     -15        0.000000        0.489898        0.189898
      -2       0     -15        0.000000        0.574456        0.242794
      -3       0     -15        0.000000        9.189124        0.212488
      -3       0     -15        0.000000        9.271462        0.195119
       3       0      15        0.000000        9.432921        0.191168
      -5       0     -15        0.000000        2.126029        0.163887
      -5      -1      15        0.000000        1.889444        0.198291
       4      -1     -15        0.000000        6.393747        0.151952
      -4      -1      15        0.000000        6.387488        0.148898
      -4       1      15        0.000000        6.212890        0.146589
       4       1     -15        0.000000        5.993330        0.171818
      -3      -1      15        0.000000        2.925748        0.104401
       3      -1     -15        0.000000        3.062679        0.111408
       3       1     -15        0.000000        2.896550        0.134304
      -3       1      15        0.000000        2.906888        0.101536
       2      -1     -15        0.000000        1.183216        0.124915
      -2      -1      15        0.000000        1.276715        0.089280
      -2      -1      15        0.000000        1.363818        0.071533
      -2       1      15        0.000000        1.191638        0.069140
      -2       1      15        0.000000        1.356466        0.083674
       2       1     -15        0.000000        1.183216        0.139185
      -2       1      15        0.000000        1.113553        0.088858
       1      -1     -15        0.000000        2.807134        0.059407
      -1      -1      15        0.000000        2.810694        0.077564
       1      -1     -15        0.000000        2.774887        0.099070
       1       1     -15        0.000000        2.810694        0.106993
       0      -1     -15        0.000000        0.244949        0.244949
       0      -1      15        0.000000        0.400000        0.200000
       0      -1      15        0.000000        0.447214        0.147214
       0      -1     -15        0.000000        0.141421        0.270889
       0       1     -15        0.000000        0.300000        0.300000
       0       1     -15        0.000000        0.500000        0.087689
      -1      -1     -15        0.000000        2.414539        0.103695
       1      -1      15        0.000000        2.580698        0.080698
      -1       1     -15        0.000000        2.551470        0.104023
       2      -1      15        0.000000        6.125357        0.131193
      -2      -1     -15        0.000000        6.048140        0.132906
      -2      -1     -15        0.000000        6.109010        0.139085
      -2      -1     -15        0.000000        6.033241        0.132394
      -2       1     -15        0.000000        6.021628        0.131806
      -2       1     -15        0.000000        5.761944        0.150349
      -2       1     -15        0.000000        5.934644        0.144998
      -3      -1     -15        0.000000        2.009975        0.104719
       3      -1      15        0.000000        1.979899        0.109070
       3       1      15        0.000000        1.994994        0.116164
      -3       1     -15        0.000000        1.982423        0.171346
      -3       1     -15        0.000000        2.039608        0.100536
      -4      -1     -15        0.000000        4.998000        0.128708
       4      -1      15        0.000000        4.888763        0.128511
      -4       1     -15        0.000000        4.965884        0.127495
       4       1      15        0.000000        4.890808        0.126356
      -5      -1     -15        0.000000        4.242641        0.143860
      -5       1     -15        0.000000        4.366921        0.138446
       4      -2     -15        0.000000        3.209361        0.194399
      -4      -2      15        0.000000        3.181195        0.128327
       4       2     -15        0.000000        3.254228        0.193182
       3      -2     -15        0.000000        8.552193        0.183800
      -3      -2      15        0.000000        8.591857        0.181744
       3       2     -15        0.000000        8.512344        0.194291
      -3       2      15        0.000000        8.545174        0.177379
      -2      -2      15        0.000000        4.514421        0.101939
      -2      -2      15        0.000000        4.444097        0.111661
       2      -2     -15        0.000000        4.594562        0.095673
       2      -2     -15        0.000000        4.630335        0.117021
      -2       2      15        0.000000        4.744470        0.100119
      -2       2      15        0.000000        4.570558        0.101777
       2       2     -15        0.000000        4.396590        0.133961
       1      -2     -15        0.000000        0.860233        0.060233
      -1      -2      15        0.000000        1.086278        0.051870
       1      -2     -15        0.000000        1.034408        0.117893
       1       2     -15        0.000000        0.871780        0.157637
       0      -2      15        0.000000        0.244949        0.244949
       0      -2     -15        0.000000        0.447214        0.447214
       0      -2     -15        0.000000        0.509902        0.209902
       0      -2     -15        0.000000        0.387298        0.122723
       0      -2      15        0.000000        0.547723        0.187167
       0       2     -15        0.000000        0.424264        0.424264
      -1      -2     -15        0.000000        2.451530        0.099935
      -1      -2     -15        0.000000        2.609598        0.073853
       1      -2      15        0.000000        2.553429        0.083611
      -1      -2     -15        0.000000        2.557342        0.077423
      -1       2     -15        0.000000        2.481935        0.075693
      -2      -2     -15        0.000000        0.100000        0.312311
      -2      -2     -15        0.000000        0.316228        0.316228
      -2      -2     -15        0.000000        0.663325        0.276027
       2      -2      15        0.000000        0.400000        0.400000
      -2       2     -15        0.000000        0.509902        0.193674
      -2       2     -15        0.000000        0.100000        0.389898
       3      -2      15        0.000000        0.866025        0.187792
      -3      -2     -15        0.000000        1.208305        0.126639
      -3       2     -15        0.000000        1.449138        0.196141
      -3       2     -15        0.000000        1.326650        0.114214
       4      -2      15        0.000000        2.479919        0.143255
      -4      -2     -15        0.000000        2.641969        0.128008
      -4       2     -15        0.000000        2.690725        0.119733
       4       2      15        0.000000        2.821347        0.119496
      -5      -2     -15        0.000000        3.069202        0.228427
      -5      -3      15        0.000000        0.728011        0.728011
      -4      -3      15        0.000000        1.009950        0.241836
       4       3     -15        0.000000        1.004988        0.569098
       3      -3     -15        0.000000        2.807134        0.116409
      -3      -3      15        0.000000        2.744085        0.121109
       3       3     -15        0.000000        2.935984        0.161096
       2      -3     -15        0.000000        9.505788        0.200950
      -2      -3      15        0.000000        8.907300        0.201555
      -2      -3      15        0.000000        9.662298        0.193929
      -2      -3      15        0.000000        9.559812        0.191781
      -2       3      15        0.000000        9.791833        0.185585
       2       3     -15        0.000000        9.612492        0.207174
      -1      -3      15        0.000000        1.140175        0.100945
      -1      -3      15        0.000000        1.284523        0.067971
       1      -3     -15        0.000000        1.260952        0.116400
       1       3     -15        0.000000        1.400000        0.151000
       0      -3     -15        0.000000        1.857418        0.068563
       0      -3      15        0.000000        1.734935        0.088727
       0      -3     -15        0.000000        1.900000        0.097224
       0      -3     -15        0.000000        1.606238        0.112919
       0       3     -15        0.000000        2.034699        0.153210
      -1      -3     -15        0.000000        1.630951        0.081757
       1      -3      15        0.000000        1.667333        0.092532
      -1      -3     -15        0.000000        1.691153        0.113180
      -1       3     -15        0.000000        1.679286        0.230148
       2      -3      15        0.000000        1.513275        0.102601
      -2      -3     -15        0.000000        1.417745        0.102450
      -2      -3     -15        0.000000        1.452584        0.125934
      -2       3     -15        0.000000        1.545962        0.153124
      -3      -3     -15        0.000000        3.642801        0.110097
       3      -3      15        0.000000        3.620773        0.107940
      -3       3     -15        0.000000        3.551056        0.148116
      -4      -3     -15        0.000000        0.200000        0.448074
      -4       3     -15        0.000000        0.685565        0.685565
      -4      -4      15        0.000000        0.538516        0.538516
       3      -4     -15        0.000000        1.034408        0.191793
      -3      -4      15        0.000000        1.224745        0.161730
      -3      -4      15        0.000000        0.678233        0.265922
       3       4     -15        0.000000        1.100000        0.508392
       2      -4     -15        0.000000        0.989949        0.159287
      -2      -4      15        0.000000        0.948683        0.088451
      -2      -4      15        0.000000        1.090871        0.111075
      -2      -4      15        0.000000        1.170470        0.121661
       2       4     -15        0.000000        1.153256        0.287231
      -1      -4      15        0.000000        6.370243        0.134059
       1      -4     -15        0.000000        6.397656        0.143857
      -1       4      15        0.000000        5.978294        0.131073
       0      -4     -15        0.000000        2.617250        0.075597
       0      -4     -15        0.000000        2.681418        0.104598
       0      -4      15        0.000000        2.574879        0.090930
       0       4     -15        0.000000        2.383275        0.196954
      -1      -4     -15        0.000000        1.191638        0.128623
       1      -4      15        0.000000        1.014889        0.114889
      -1      -4     -15        0.000000        1.044031        0.111293
      -1       4     -15        0.000000        0.860233        0.860233
      -2      -4     -15        0.000000        2.700000        0.115430
      -2      -4     -15        0.000000        2.505993        0.101830
       2      -4      15        0.000000        2.397916        0.104447
      -2       4     -15        0.000000        2.513961        0.139093
       3      -4      15        0.000000        1.545962        0.135289
      -3      -4     -15        0.000000        1.516575        0.160109
      -4      -4     -15        0.000000        1.178983        0.219816
       4      -4      15        0.000000        1.240967        0.221163
      -4       4     -15        0.000000        1.476482        0.381037
      -4      -5      15        0.000000        1.941649        0.178130
       4       5     -15        0.000000        1.889444        0.589444
      -3      -5      15        0.000000        3.207803        0.128842
       3      -5     -15        0.000000        3.411744        0.136077
       3       5     -15        0.000000        2.886174        0.286174
      -2      -5      15        0.000000        1.977372        0.114578
      -2      -5      15        0.000000        2.059126        0.084284
      -2      -5      15        0.000000        2.197726        0.109665
       2      -5     -15        0.000000        2.027313        0.137869
       2       5     -15        0.000000        1.913113        0.279099
       1      -5     -15        0.000000        0.624500        0.263945
      -1      -5      15        0.000000        0.591608        0.191608
       1       5     -15        0.000000        0.412311        0.520427
       0      -5     -15        0.000000        7.311635        0.150629
       0      -5      15        0.000000        7.339619        0.155608
       0      -5     -15        0.000000        7.318470        0.163751
       0       5     -15        0.000000        6.946942        0.217900
       1      -5      15        0.000000        1.403567        0.122942
      -1      -5     -15        0.000000        1.428286        0.094119
      -1      -5     -15        0.000000        1.621727        0.131761
      -1       5     -15        0.000000        1.545962        0.366980
       2      -5      15        0.000000        0.316228        0.316228
      -2      -5     -15        0.000000        0.264575        0.383499
      -2      -5     -15        0.000000        0.300000        0.300000
      -2       5     -15        0.000000        0.264575        0.398750
      -3      -5     -15        0.000000        0.774597        0.295014
       3      -5      15        0.000000        0.800000        0.387689
      -3       5     -15        0.000000        1.208305        0.330808
       4      -5      15        0.000000        0.964365        0.324053
      -4       5     -15        0.000000        0.583095        0.583095
      -4      -6      15        0.000000        2.379075        0.179075
       4       6     -15        0.000000        3.028201        0.451381
       3      -6     -15        0.000000        0.500000        0.500000
       3       6     -15        0.000000        0.754983        0.754983
      -2      -6      15        0.000000        2.000000        0.102633
      -2      -6      15        0.000000        2.376973        0.118655
      -2      -6      15        0.000000        2.242766        0.126165
       2      -6     -15        0.000000        2.353720        0.149180
       1      -6     -15        0.000000        0.818535        0.226927
      -1      -6      15        0.000000        0.721110        0.191960
      -1      -6      15        0.000000        0.830662        0.182588
       1       6     -15        0.000000        0.173205        0.816744
       0      -6      15        0.000000        4.176123        0.112873
       0      -6     -15        0.000000        4.241462        0.101414
       0      -6     -15        0.000000        4.028647        0.131212
       0       6     -15        0.000000        4.024922        0.259288
      -1      -6     -15        0.000000        4.507771        0.132842
       1      -6      15        0.000000        4.495553        0.120625
      -1      -6     -15        0.000000        4.543127        0.113680
      -2      -6     -15        0.000000        0.685565        0.461959
       3      -6      15        0.000000        1.385641        0.194003
      -3      -6     -15        0.000000        1.509967        0.168326
      -3       6     -15        0.000000        1.558846        0.258846
       4      -6      15        0.000000        0.458258        0.458258
      -4      -6     -15        0.000000        0.331662        0.653223
      -4       6     -15        0.000000        0.435890        0.978324
       3      -7     -15        0.000000        1.442221        0.229785
      -3      -7      15        0.000000        1.532971        0.206321
       3       7     -15        0.000000        1.244990        1.244990
      -2      -7      15        0.000000        1.170470        0.185584
       2      -7     -15        0.000000        1.170470        0.264931
      -2      -7      15        0.000000        1.545962        0.163935
       2       7     -15        0.000000        1.424781        0.663203
       1      -7     -15        0.000000        4.126742        0.146792
      -1      -7      15        0.000000        4.466542        0.119129
      -1      -7      15        0.000000        4.385202        0.116713
       0      -7     -15        0.000000        2.170253        0.152829
       0      -7      15        0.000000        2.009975        0.141821
      -1      -7     -15        0.000000        2.469818        0.176349
       1      -7      15        0.000000        2.937686        0.118112
      -2      -7     -15        0.000000        2.293469        0.158053
      -2      -7     -15        0.000000        2.080865        0.134073
       2      -7      15        0.000000        2.144761        0.129817
      -2       7     -15        0.000000        2.133073        0.230443
      -3      -7     -15        0.000000        0.447214        0.447214
       3      -7      15        0.000000        0.583095        0.583095
      -3       7     -15        0.000000        0.100000        0.874679
      -3      -8      15        0.000000        1.717556        0.230950
       3      -8     -15        0.000000        1.288410        0.334471
       2      -8     -15        0.000000        2.370654        0.177483
      -2      -8      15        0.000000        2.628688        0.144739
      -2      -8      15        0.000000        2.449490        0.147317
      -1      -8      15        0.000000        0.435890        0.435890
       1      -8     -15        0.000000        0.173205        0.554806
       0      -8      15        0.000000        3.184337        0.126560
       0      -8     -15        0.000000        3.016621        0.109732
       0      -8     -15        0.000000        3.104835        0.162047
       0      -8      15        0.000000        2.942788        0.121441
      -1      -8     -15        0.000000        2.154066        0.126752
      -1      -8     -15        0.000000        2.078461        0.157524
       1      -8      15        0.000000        2.061553        0.145828
      -2      -8     -15        0.000000        3.306055        0.173963
       2      -8      15        0.000000        3.229551        0.144101
      -2      -8     -15        0.000000        3.340659        0.129740
      -2       8     -15        0.000000        2.956349        0.212265
       3      -8      15        0.000000        2.095233        0.171694
      -2      -9      15        0.000000        1.100000        0.371989
       2      -9     -15        0.000000        0.824621        0.824621
      -2      -9      15        0.000000        1.424781        0.254311
      -1      -9      15        0.000000        2.547548        0.153806
       1      -9     -15        0.000000        2.059126        0.204402
      -1      -9      15        0.000000        2.431049        0.161688
       0      -9      15        0.000000        0.748331        0.524725
       0      -9      15        0.000000        1.224745        0.234795
       0      -9     -15        0.000000        1.077033        0.211008
      -1      -9     -15        0.000000        3.195309        0.188650
       1      -9      15        0.000000        3.479943        0.148276
      -1      -9     -15        0.000000        3.124100        0.139138
      -1       9     -15        0.000000        3.098387        0.224365
       2      -9      15        0.000000        1.456022        0.235366
      -2       9     -15        0.000000        0.943398        0.943398
      -5       0      16        0.000000        1.067708        0.339697
      -4       0      16        0.000000        2.561250        0.138441
       4       0     -16        0.000000        2.381176        0.167582
      -2       0      16        0.000000        0.435890        0.212283
       2       0     -16        0.000000        0.316228        0.316228
      -1       0      16        0.000000        0.244949        0.244949
       0       0     -16        0.000000        1.558846        0.055516
       0       0     -16        0.000000        1.655295        0.119065
       0       0      16        0.000000        1.670329        0.060982
       0       0      16        0.000000        1.646208        0.077769
      -1       0     -16        0.000000        0.000000        0.374166
      -2       0     -16        0.000000       10.172512        0.205567
      -2       0     -16        0.000000       10.054352        0.213621
       2       0      16        0.000000       10.102970        0.207516
       3       0      16        0.000000        0.565685        0.265685
      -3       0     -16        0.000000        0.387298        0.387298
      -3       0     -16        0.000000        0.547723        0.547723
      -4       0     -16        0.000000        2.179449        0.127621
       4       0      16        0.000000        2.293469        0.134766
      -5       0     -16        0.000000        0.624500        0.624500
       4      -1     -16        0.000000        5.547973        0.143345
      -4      -1      16        0.000000        5.282045        0.177145
       4       1     -16        0.000000        5.283938        0.165344
      -4       1      16        0.000000        5.354437        0.135242
      -3      -1      16        0.000000        1.791647        0.118327
       3      -1     -16        0.000000        1.944222        0.127632
      -3       1      16        0.000000        1.913113        0.113113
       3       1     -16        0.000000        1.774824        0.150016
       2      -1     -16        0.000000        0.583095        0.266867
      -2      -1      16        0.000000        0.223607        0.223607
      -2      -1      16        0.000000        0.435890        0.171315
      -2       1      16        0.000000        0.360555        0.260555
       2       1     -16        0.000000        0.412311        0.412311
       1      -1     -16        0.000000        0.670820        0.180922
      -1      -1      16        0.000000        0.700000        0.108392
       1      -1     -16        0.000000        0.608276        0.051500
       1       1     -16        0.000000        0.565685        0.265685
       0      -1     -16        0.000000        1.529706        0.111961
       0      -1      16        0.000000        1.526434        0.080751
       0      -1      16        0.000000        1.562050        0.072083
       0      -1     -16        0.000000        1.500000        0.064730
       0       1     -16        0.000000        1.500000        0.054317
       0       1     -16        0.000000        1.496663        0.114635
      -1      -1     -16        0.000000        5.500909        0.137142
      -1      -1     -16        0.000000        5.757604        0.122003
       1      -1      16        0.000000        5.768015        0.124435
      -1       1     -16        0.000000        5.675385        0.136432
      -1       1     -16        0.000000        5.695612        0.120668
      -2      -1     -16        0.000000        0.583095        0.283095
      -2      -1     -16        0.000000        0.346410        0.346410
      -2      -1     -16        0.000000        0.331662        0.331662
       2      -1      16        0.000000        0.387298        0.387298
      -2       1     -16        0.000000        0.538516        0.192106
      -2       1     -16        0.000000        0.556776        0.333170
      -2       1     -16        0.000000        0.479583        0.479583
      -3      -1     -16        0.000000        2.662705        0.107319
       3      -1      16        0.000000        2.582634        0.110793
      -3       1     -16        0.000000        2.925748        0.141866
      -3       1     -16        0.000000        2.756810        0.097863
       3       1      16        0.000000        2.716616        0.112772
      -4      -1     -16        0.000000        0.678233        0.346571
       4       1      16        0.000000        0.860233        0.277137
      -4       1     -16        0.000000        0.748331        0.748331
      -4       1     -16        0.000000        0.871780        0.223706
      -5       1     -16        0.000000        0.624500        0.720863
      -5      -2      16        0.000000        0.374166        0.525834
      -4      -2      16        0.000000        0.200000        0.448074
       4      -2     -16        0.000000        0.916515        0.333420
      -4       2      16        0.000000        0.591608        0.591608
      -3      -2      16        0.000000        5.202884        0.124498
       3      -2     -16        0.000000        5.081338        0.131591
       3       2     -16        0.000000        5.018964        0.152754
      -3       2      16        0.000000        5.147815        0.118899
       2      -2     -16        0.000000        3.801316        0.110787
      -2      -2      16        0.000000        3.769615        0.100828
      -2      -2      16        0.000000        3.674235        0.093732
       2      -2     -16        0.000000        3.908964        0.080126
       2       2     -16        0.000000        3.718871        0.131393
      -2       2      16        0.000000        3.882010        0.091232
       1      -2     -16        0.000000        2.116601        0.099177
      -1      -2      16        0.000000        2.264950        0.078629
      -1      -2      16        0.000000        2.364318        0.055639
       1      -2     -16        0.000000        2.188607        0.060227
       1       2     -16        0.000000        2.213594        0.115977
       0      -2     -16        0.000000        9.361090        0.191030
       0      -2     -16        0.000000        9.343447        0.195770
       0      -2     -16        0.000000        9.288703        0.187604
       0      -2      16        0.000000        9.351470        0.190684
       0       2     -16        0.000000        9.227134        0.202169
       1      -2      16        0.000000        0.678233        0.139717
      -1      -2     -16        0.000000        0.500000        0.300000
      -1      -2     -16        0.000000        0.648074        0.128459
      -1       2     -16        0.000000        0.316228        0.362005
      -1       2     -16        0.000000        0.583095        0.124838
      -2      -2     -16        0.000000        0.663325        0.289159
      -2      -2     -16        0.000000        0.921954        0.134554
       2      -2      16        0.000000        0.830662        0.152429
      -2       2     -16        0.000000        1.249000        0.167334
      -2       2     -16        0.000000        1.236932        0.088019
      -2       2     -16        0.000000        1.220656        0.282572
      -3       2     -16        0.000000        0.670820        0.201779
      -3       2     -16        0.000000        0.640312        0.640312
      -4      -2     -16        0.000000        3.781534        0.130507
       4      -2      16        0.000000        3.827532        0.177874
      -4       2     -16        0.000000        4.036087        0.118180
       4       2      16        0.000000        4.050926        0.119005
      -5       2     -16        0.000000        1.178983        1.178983
      -4      -3      16        0.000000        0.469042        0.469042
       4       3     -16        0.000000        0.781025        0.781025
      -3      -3      16        0.000000        1.166190        0.151301
       3      -3     -16        0.000000        1.067708        0.173281
       3       3     -16        0.000000        0.768115        0.523166
       2      -3     -16        0.000000        3.386739        0.111071
      -2      -3      16        0.000000        3.330165        0.091338
      -2      -3      16        0.000000        3.400000        0.096971
      -2       3      16        0.000000        3.429286        0.082646
       2       3     -16        0.000000        3.337664        0.139227
      -1      -3      16        0.000000       11.817783        0.242810
       1      -3     -16        0.000000       12.044916        0.234751
       1      -3     -16        0.000000       11.806778        0.248664
      -1      -3      16        0.000000       12.210242        0.231510
       1       3     -16        0.000000       11.808895        0.254242
      -1      -3     -16        0.000000        1.974842        0.082753
       1      -3      16        0.000000        1.949359        0.094635
      -1      -3     -16        0.000000        2.133073        0.110698
      -1       3     -16        0.000000        2.083267        0.215112
       2      -3      16        0.000000        0.374166        0.374166
      -2      -3     -16        0.000000        0.458258        0.316836
      -2       3     -16        0.000000        0.264575        0.343701
       3      -3      16        0.000000        1.034408        0.185880
      -3      -3     -16        0.000000        1.200000        0.155969
      -3       3     -16        0.000000        1.431782        0.231782
       4      -3      16        0.000000        1.174734        0.210369
      -4      -3     -16        0.000000        1.081665        0.233137
      -4       3     -16        0.000000        0.489898        0.623655
      -4      -4      16        0.000000        1.014889        0.300746
      -3      -4      16        0.000000        3.133688        0.128692
       3      -4     -16        0.000000        3.133688        0.125366
       3       4     -16        0.000000        3.451087        0.229286
      -2      -4      16        0.000000        5.828379        0.131889
       2      -4     -16        0.000000        5.671860        0.142846
      -2      -4      16        0.000000        5.715768        0.128282
      -1      -4      16        0.000000        5.886425        0.129690
       1      -4     -16        0.000000        5.829237        0.142410
       0      -4     -16        0.000000        4.902040        0.127106
       0      -4      16        0.000000        4.914265        0.116349
       0      -4     -16        0.000000        4.860041        0.109252
      -1      -4     -16        0.000000        1.774824        0.089594
      -1      -4     -16        0.000000        1.868154        0.127465
       1      -4      16        0.000000        1.892089        0.100442
      -1       4     -16        0.000000        1.711724        0.308157
      -2      -4     -16        0.000000        3.806573        0.117400
       2      -4      16        0.000000        3.769615        0.109014
      -2      -4     -16        0.000000        3.689173        0.107274
      -2       4     -16        0.000000        3.794733        0.131401
       3      -4      16        0.000000        0.173205        0.383571
      -3       4     -16        0.000000        0.608276        0.608276
      -4      -4     -16        0.000000        0.707107        0.507107
      -4       4     -16        0.000000        0.331662        0.736045
      -4      -5      16        0.000000        0.994987        0.339244
      -3      -5      16        0.000000        4.176123        0.126431
       3      -5     -16        0.000000        4.073082        0.137349
      -2      -5      16        0.000000        0.854400        0.126389
      -2      -5      16        0.000000        0.974679        0.150058
       2      -5     -16        0.000000        0.787401        0.248884
      -2      -5      16        0.000000        0.806226        0.197950
       2       5     -16        0.000000        0.916515        0.916515
      -1      -5      16        0.000000        0.994987        0.128962
       1      -5     -16        0.000000        0.932738        0.171161
       1       5     -16        0.000000        1.058301        0.568403
       0      -5      16        0.000000        6.473793        0.140548
       0      -5     -16        0.000000        6.318228        0.135995
       0      -5     -16        0.000000        6.409368        0.149975
       0       5     -16        0.000000        5.971599        0.219209
       1      -5      16        0.000000        5.942222        0.140498
      -1      -5     -16        0.000000        6.010824        0.146525
      -1      -5     -16        0.000000        6.070420        0.132407
       2      -5      16        0.000000        1.868154        0.121729
      -2      -5     -16        0.000000        2.076054        0.111366
      -2      -5     -16        0.000000        1.936492        0.139272
      -2       5     -16        0.000000        1.977372        0.169058
      -3      -5     -16        0.000000        1.800000        0.138675
       3      -5      16        0.000000        1.886796        0.134655
      -3       5     -16        0.000000        2.002498        0.216441
       4      -5      16        0.000000        1.153256        0.281476
      -4      -5     -16        0.000000        1.170470        0.276043
      -4       5     -16        0.000000        0.761577        0.761577
      -4      -6      16        0.000000        1.700000        0.220135
       3      -6     -16        0.000000        1.565248        0.194117
      -3      -6      16        0.000000        1.558846        0.187715
       3       6     -16        0.000000        0.655744        0.796840
       2      -6     -16        0.000000        1.723369        0.206794
      -2      -6      16        0.000000        1.552417        0.134673
      -2      -6      16        0.000000        1.272792        0.123880
       2       6     -16        0.000000        1.187434        0.763170
       1       6     -16        0.000000        0.387298        0.647110
       0      -6     -16        0.000000        0.300000        0.300000
       0       6     -16        0.000000        0.830662        0.830662
       1      -6      16        0.000000        5.201923        0.127477
      -1      -6     -16        0.000000        5.161395        0.121554
      -1      -6     -16        0.000000        5.005996        0.142870
      -2      -6     -16        0.000000        3.435113        0.144216
      -2      -6     -16        0.000000        3.532704        0.110717
       2      -6      16        0.000000        3.433657        0.120049
      -2       6     -16        0.000000        3.481379        0.160235
       3      -6      16        0.000000        1.907878        0.161453
      -3      -6     -16        0.000000        1.743560        0.159262
      -3       6     -16        0.000000        2.088061        0.236035
      -3      -7      16        0.000000        2.521904        0.161819
       3      -7     -16        0.000000        2.722132        0.204196
       3       7     -16        0.000000        1.835756        0.682500
      -2      -7      16        0.000000        2.220360        0.137094
       2      -7     -16        0.000000        1.910497        0.166938
      -2      -7      16        0.000000        1.892089        0.177446
       2       7     -16        0.000000        1.964688        0.409053
       1      -7     -16        0.000000        0.547723        0.547723
       0      -7      16        0.000000        0.624500        0.341657
       0      -7     -16        0.000000        0.346410        0.346410
      -1      -7     -16        0.000000        1.374773        0.195790
      -1      -7     -16        0.000000        1.367479        0.130548
       1      -7      16        0.000000        1.363818        0.159659
      -2      -7     -16        0.000000        3.432200        0.235327
       2      -7      16        0.000000        3.168596        0.130504
      -2      -7     -16        0.000000        3.226453        0.126453
      -2       7     -16        0.000000        3.051229        0.180689
       3      -7      16        0.000000        2.037155        0.158325
      -3      -7     -16        0.000000        2.222611        0.163485
      -3       7     -16        0.000000        2.186321        0.262783
      -3      -8      16        0.000000        1.915724        0.227530
       3      -8     -16        0.000000        1.982423        0.235998
      -2      -8      16        0.000000        0.959166        0.334667
       2      -8     -16        0.000000        0.670820        0.670820
      -2      -8      16        0.000000        0.905539        0.313931
       2       8     -16        0.000000        1.187434        1.187434
      -1      -8      16        0.000000        1.984943        0.146466
       1      -8     -16        0.000000        1.939072        0.167067
      -1      -8      16        0.000000        1.827567        0.151261
       0      -8     -16        0.000000        0.282843        0.452004
       0      -8      16        0.000000        0.264575        0.398750
       0      -8     -16        0.000000        0.787401        0.230624
       0      -8      16        0.000000        0.707107        0.360697
      -1      -8     -16        0.000000        1.228821        0.175255
      -1      -8     -16        0.000000        1.300000        0.251191
       1      -8      16        0.000000        1.090871        0.230639
      -2      -8     -16        0.000000        1.536229        0.194588
       2      -8      16        0.000000        1.456022        0.207022
      -2      -8     -16        0.000000        1.249000        0.394599
      -2       8     -16        0.000000        1.640122        0.283656
      -2      -9      16        0.000000        1.634013        0.255609
      -2      -9      16        0.000000        2.211334        0.193910
      -1      -9      16        0.000000        0.100000        0.687401
       1      -9     -16        0.000000        1.034408        0.394096
       0      -9     -16        0.000000        0.812404        0.322506
       0      -9      16        0.000000        0.469042        0.469042
       0      -9     -16        0.000000        0.447214        0.474741
       0      -9      16        0.000000        0.640312        0.640312
       1      -9      16        0.000000        1.024695        0.289848
      -1      -9     -16        0.000000        0.748331        0.748331
      -1       9     -16        0.000000        0.316228        0.627170
      -5       0      17        0.000000        0.989949        0.365450
      -4       0      17        0.000000        0.583095        0.583095
      -3       0      17        0.000000        3.471311        0.106790
       3       0     -17        0.000000        3.391165        0.127731
       2       0     -17        0.000000        0.316228        0.316228
       1       0     -17        0.000000        0.316228        0.316228
      -1       0      17        0.000000        0.141421        0.245877
       0       0     -17        0.000000        0.447214        0.130986
       0       0     -17        0.000000        0.282843        0.282843
      -1       0     -17        0.000000        0.806226        0.197950
      -1       0     -17        0.000000        0.700000        0.108392
       1       0      17        0.000000        0.714143        0.131048
      -2       0     -17        0.000000        0.000000        0.400000
      -2       0     -17        0.000000        0.529150        0.387729
      -2       0     -17        0.000000        1.063015        0.226355
       2       0      17        0.000000        0.244949        0.244949
      -3       0     -17        0.000000        7.337575        0.180760
      -3       0     -17        0.000000        7.325981        0.162881
       3       0      17        0.000000        7.498000        0.159744
       4       0      17        0.000000        0.244949        0.510034
      -5      -1      17        0.000000        2.302173        0.171445
       4      -1     -17        0.000000        1.236932        0.252046
      -4      -1      17        0.000000        1.090871        0.242343
      -4       1      17        0.000000        1.183216        0.193266
       4       1     -17        0.000000        1.407125        0.258212
      -3      -1      17        0.000000        0.529150        0.429150
       3      -1     -17        0.000000        0.714143        0.278253
      -3       1      17        0.000000        0.648074        0.248074
       2      -1     -17        0.000000        1.865476        0.121916
      -2      -1      17        0.000000        1.862794        0.085155
      -2      -1      17        0.000000        1.772005        0.077897
      -2       1      17        0.000000        1.682260        0.082260
      -2       1      17        0.000000        1.889444        0.083897
       2       1     -17        0.000000        1.892089        0.134249
       1      -1     -17        0.000000        0.360555        0.077712
       1      -1     -17        0.000000        0.331662        0.331662
       0      -1      17        0.000000        0.900000        0.093774
       0      -1      17        0.000000        0.860233        0.098655
       0      -1     -17        0.000000        0.774597        0.081776
       0      -1     -17        0.000000        0.927362        0.133636
       0       1     -17        0.000000        0.871780        0.164673
       0       1     -17        0.000000        0.871780        0.065554
      -1      -1     -17        0.000000       10.800463        0.217930
       1      -1      17        0.000000       10.937550        0.217475
      -1      -1     -17        0.000000       10.684100        0.226567
      -1       1     -17        0.000000       10.843431        0.224580
      -1       1     -17        0.000000       10.746162        0.218104
      -2      -1     -17        0.000000        3.930649        0.096591
      -2      -1     -17        0.000000        3.708099        0.113659
       2      -1      17        0.000000        3.897435        0.101384
      -2       1     -17        0.000000        3.430743        0.162716
      -2       1     -17        0.000000        3.794733        0.097437
      -2       1     -17        0.000000        3.678315        0.118820
      -3      -1     -17        0.000000        4.048456        0.116536
       3      -1      17        0.000000        4.125530        0.115543
      -3       1     -17        0.000000        4.185690        0.144650
      -3       1     -17        0.000000        4.130375        0.111669
       3       1      17        0.000000        4.325506        0.113618
      -4      -1     -17        0.000000        2.891366        0.129121
       4      -1      17        0.000000        2.725803        0.162602
      -4       1     -17        0.000000        2.941088        0.121514
       4       1      17        0.000000        2.939388        0.134036
      -5      -2      17        0.000000        1.500000        0.271179
       4      -2     -17        0.000000        3.352611        0.155737
      -4      -2      17        0.000000        3.190611        0.145944
      -4       2      17        0.000000        3.136877        0.178838
       4       2     -17        0.000000        3.238827        0.208975
      -3      -2      17        0.000000        1.532971        0.122297
       3      -2     -17        0.000000        1.407125        0.138267
      -3       2      17        0.000000        1.403567        0.107419
       3       2     -17        0.000000        0.900000        0.343224
       2      -2     -17        0.000000        0.244949        0.244949
      -2      -2      17        0.000000        0.316228        0.316228
       1      -2     -17        0.000000        0.173205        0.173205
       0      -2      17        0.000000        9.592706        0.191642
       0      -2     -17        0.000000        9.671608        0.186356
       0      -2     -17        0.000000        9.348797        0.197294
       0      -2     -17        0.000000        9.492102        0.199094
       0       2     -17        0.000000        9.149317        0.210078
       1      -2      17        0.000000        3.674235        0.097924
      -1      -2     -17        0.000000        3.675595        0.092301
      -1      -2     -17        0.000000        3.600000        0.110014
      -1       2     -17        0.000000        3.640055        0.088999
      -2      -2     -17        0.000000        2.771281        0.097333
      -2      -2     -17        0.000000        2.839014        0.115046
       2      -2      17        0.000000        2.749545        0.100017
      -2       2     -17        0.000000        2.800000        0.186573
      -2       2     -17        0.000000        2.808914        0.088620
      -2       2     -17        0.000000        2.734959        0.119620
      -3      -2     -17        0.000000        0.943398        0.463815
       3      -2      17        0.000000        1.170470        0.170470
      -3      -2     -17        0.000000        1.122497        0.152961
      -3       2     -17        0.000000        1.311488        0.253187
      -3       2     -17        0.000000        1.208305        0.126639
      -4      -2     -17        0.000000        3.067572        0.128185
       4      -2      17        0.000000        2.842534        0.149952
       4       2      17        0.000000        3.135283        0.121979
      -4       2     -17        0.000000        2.882707        0.127712
      -4      -3      17        0.000000        0.374166        0.419560
       4      -3     -17        0.000000        0.632456        0.632456
       3      -3     -17        0.000000        2.839014        0.131617
      -3      -3      17        0.000000        3.046309        0.110326
       3       3     -17        0.000000        3.011644        0.181450
       2      -3     -17        0.000000        3.531289        0.115151
      -2      -3      17        0.000000        3.512834        0.090846
      -2      -3      17        0.000000        3.507136        0.101258
      -2       3      17        0.000000        3.539774        0.087239
       2       3     -17        0.000000        3.507136        0.144101
       1      -3     -17        0.000000        7.502000        0.152170
      -1      -3      17        0.000000        7.706491        0.148713
       1      -3     -17        0.000000        7.480642        0.167640
      -1      -3      17        0.000000        7.385120        0.160856
       1       3     -17        0.000000        7.440430        0.178199
       0      -3      17        0.000000        1.878829        0.092772
       0      -3     -17        0.000000        2.140093        0.117719
       0      -3     -17        0.000000        2.002498        0.115702
       0      -3     -17        0.000000        2.039608        0.072376
       0       3     -17        0.000000        2.059126        0.153870
      -1      -3     -17        0.000000        0.447214        0.447214
      -1       3     -17        0.000000        0.964365        0.454463
       2      -3      17        0.000000        1.493318        0.118546
      -2      -3     -17        0.000000        1.609348        0.106018
      -2      -3     -17        0.000000        1.688194        0.135777
      -2       3     -17        0.000000        1.673320        0.150165
      -3      -3     -17        0.000000        2.107131        0.199252
       3      -3      17        0.000000        2.051828        0.128290
      -3       3     -17        0.000000        2.092845        0.182348
       4      -3      17        0.000000        2.459675        0.135885
      -4      -3     -17        0.000000        2.123676        0.141253
      -4       3     -17        0.000000        1.797220        0.307254
      -4      -4      17        0.000000        0.860233        0.435968
      -3      -4      17        0.000000        1.977372        0.128048
       3      -4     -17        0.000000        1.873499        0.147232
       3       4     -17        0.000000        2.177154        0.238082
      -2      -4      17        0.000000        8.757283        0.185235
       2      -4     -17        0.000000        8.668333        0.196616
      -2      -4      17        0.000000        8.642916        0.190698
       2       4     -17        0.000000        9.376033        0.202702
      -1      -4      17        0.000000        4.188078        0.112542
       1      -4     -17        0.000000        4.205948        0.124282
       1       4     -17        0.000000        4.647580        0.156478
       0      -4     -17        0.000000        1.708801        0.124503
       0      -4      17        0.000000        2.002498        0.092001
       0      -4     -17        0.000000        1.907878        0.083050
       0       4     -17        0.000000        1.694107        0.269327
      -1      -4     -17        0.000000        2.149419        0.090292
       1      -4      17        0.000000        2.233831        0.100758
      -1      -4     -17        0.000000        2.336664        0.120812
      -1       4     -17        0.000000        2.424871        0.240838
       2      -4      17        0.000000        0.877496        0.149485
      -2      -4     -17        0.000000        0.141421        0.348477
      -2      -4     -17        0.000000        0.905539        0.212718
      -2       4     -17        0.000000        0.632456        0.387507
      -3      -4     -17        0.000000        1.714643        0.139841
       3      -4      17        0.000000        1.542725        0.219849
      -3       4     -17        0.000000        1.862794        0.207499
      -4      -4     -17        0.000000        0.707107        0.462158
      -4       4     -17        0.000000        0.600000        0.600000
      -4      -5      17        0.000000        3.445287        0.160473
       4       5     -17        0.000000        2.485961        0.511119
      -3      -5      17        0.000000        3.103224        0.124970
       3      -5     -17        0.000000        2.973214        0.155413
       3       5     -17        0.000000        2.364318        0.339472
      -2      -5      17        0.000000        1.280625        0.140449
      -2      -5      17        0.000000        1.288410        0.130826
       2      -5     -17        0.000000        1.396424        0.155457
       2       5     -17        0.000000        0.959166        0.959166
      -1      -5      17        0.000000        0.774597        0.182989
       1      -5     -17        0.000000        0.989949        0.177546
       1       5     -17        0.000000        1.500000        0.355448
       0      -5     -17        0.000000        0.374166        0.374166
      -1      -5     -17        0.000000        2.251666        0.092963
       1      -5      17        0.000000        2.253886        0.109124
      -1      -5     -17        0.000000        2.114237        0.141929
      -1       5     -17        0.000000        2.044505        0.321136
       2      -5      17        0.000000        1.300000        0.155448
      -2      -5     -17        0.000000        1.708801        0.115063
      -2      -5     -17        0.000000        1.624808        0.161934
      -2       5     -17        0.000000        1.688194        0.184865
       3      -5      17        0.000000        1.014889        0.240292
      -3      -5     -17        0.000000        1.319091        0.187720
      -3       5     -17        0.000000        1.183216        0.317191
      -4      -6      17        0.000000        3.201562        0.168412
       4       6     -17        0.000000        2.854820        0.520297
      -3      -6      17        0.000000        2.195450        0.160751
       3      -6     -17        0.000000        2.295648        0.157892
       3       6     -17        0.000000        1.944222        0.562195
      -2      -6      17        0.000000        2.605763        0.129879
      -2      -6      17        0.000000        2.709243        0.111167
       2      -6     -17        0.000000        2.698148        0.148638
       2       6     -17        0.000000        1.982423        0.376185
      -1      -6      17        0.000000        1.870829        0.107309
      -1      -6      17        0.000000        1.749286        0.118335
       1      -6     -17        0.000000        1.658312        0.148346
       1       6     -17        0.000000        1.334166        0.521763
       0      -6     -17        0.000000        1.449138        0.103775
       0      -6      17        0.000000        1.326650        0.151916
       0      -6     -17        0.000000        1.509967        0.153501
       0       6     -17        0.000000        1.392839        0.521059
      -1      -6     -17        0.000000        0.600000        0.253590
      -2      -6     -17        0.000000        2.073644        0.121722
       2      -6      17        0.000000        2.095233        0.130544
      -2      -6     -17        0.000000        2.111871        0.159949
      -2       6     -17        0.000000        2.007486        0.193650
      -3      -6     -17        0.000000        0.948683        0.277863
       3      -6      17        0.000000        0.663325        0.663325
      -3       6     -17        0.000000        1.039230        0.447623
       4      -6      17        0.000000        1.705872        0.219265
      -3      -7      17        0.000000        0.842615        0.510952
       3       7     -17        0.000000        1.500000        1.125834
      -2      -7      17        0.000000        0.400000        0.400000
      -2      -7      17        0.000000        0.244949        0.418376
      -1      -7      17        0.000000        1.183216        0.163412
      -1      -7      17        0.000000        0.948683        0.213836
       1      -7     -17        0.000000        0.964365        0.308621
       1       7     -17        0.000000        1.024695        1.024695
       0      -7     -17        0.000000        1.044031        0.237805
       0      -7      17        0.000000        0.574456        0.574456
       0      -7     -17        0.000000        1.034408        0.151232
      -1      -7     -17        0.000000        1.964688        0.164688
       1      -7      17        0.000000        1.667333        0.140899
      -1      -7     -17        0.000000        1.941649        0.114082
       2      -7      17        0.000000        1.714643        0.155797
      -2      -7     -17        0.000000        1.822087        0.142801
      -2      -7     -17        0.000000        1.915724        0.195259
      -2       7     -17        0.000000        1.670329        0.281085
      -3      -7     -17        0.000000        2.426932        0.153169
       3      -7      17        0.000000        2.374868        0.150009
      -3       7     -17        0.000000        2.310844        0.259016
      -2      -8      17        0.000000        1.019804        0.305661
      -2      -8      17        0.000000        0.787401        0.522826
       2      -8     -17        0.000000        0.943398        0.463815
       2       8     -17        0.000000        0.734847        0.889961
      -1      -8      17        0.000000        0.900000        0.316905
      -1      -8      17        0.000000        0.984886        0.250039
       1      -8     -17        0.000000        0.707107        0.707107
       0      -8      17        0.000000        0.556776        0.556776
       0      -8     -17        0.000000        0.400000        0.418535
       0      -8     -17        0.000000        0.787401        0.277499
      -1      -8     -17        0.000000        0.700000        0.368338
       1      -8      17        0.000000        0.458258        0.458258
      -2      -8     -17        0.000000        1.157584        0.252045
       2      -8      17        0.000000        1.224745        0.255209
      -2       8     -17        0.000000        1.157584        0.517271
      -2      -9      17        0.000000        1.630951        0.252546
       1      -9     -17        0.000000        1.378405        0.315390
      -1      -9      17        0.000000        1.284523        0.269634
      -1      -9      17        0.000000        1.593738        0.226258
       0      -9      17        0.000000        1.918333        0.171908
       0      -9     -17        0.000000        1.910497        0.158356
       0      -9      17        0.000000        1.780449        0.186712
       0      -9     -17        0.000000        1.208305        0.297261
       1      -9      17        0.000000        1.048809        0.320798
      -1      -9     -17        0.000000        0.728011        0.528011
      -1      -9     -17        0.000000        0.700000        0.700000
       4       0     -18        0.000000        0.894427        0.458537
      -4       0      18        0.000000        0.529150        0.529150
      -2       0      18        0.000000        4.323193        0.098267
      -2       0      18        0.000000        4.414748        0.103136
       2       0     -18        0.000000        4.246175        0.126709
      -1       0      18        0.000000        0.264575        0.264575
       1       0     -18        0.000000        0.200000        0.300000
       0       0      18        0.000000        0.774597        0.096364
       0       0     -18        0.000000        0.943398        0.065902
       0       0     -18        0.000000        0.632456        0.220145
       0       0      18        0.000000        0.842615        0.100995
      -1       0     -18        0.000000        0.331662        0.331662
       1       0      18        0.000000        0.300000        0.300000
       2       0      18        0.000000       12.754215        0.252215
      -2       0     -18        0.000000       12.323555        0.264948
      -2       0     -18        0.000000       12.723207        0.251639
      -3       0     -18        0.000000        0.374166        0.438238
       3       0      18        0.000000        0.200000        0.347723
      -4       0     -18        0.000000        4.112177        0.127205
       4       0      18        0.000000        4.052160        0.135529
      -5      -1      18        0.000000        2.875761        0.160986
      -4      -1      18        0.000000        0.734847        0.403184
      -4       1      18        0.000000        1.090871        0.230639
       4       1     -18        0.000000        0.565685        0.565685
      -3      -1      18        0.000000        1.813836        0.122682
       3      -1     -18        0.000000        1.786057        0.139849
      -3       1      18        0.000000        1.655295        0.115814
       3       1     -18        0.000000        1.802776        0.171825
       2      -1     -18        0.000000        3.261901        0.120246
      -2      -1      18        0.000000        3.363034        0.095007
      -2      -1      18        0.000000        3.383785        0.085300
      -2       1      18        0.000000        3.349627        0.084661
      -2       1      18        0.000000        3.429286        0.088627
       2       1     -18        0.000000        3.380828        0.126600
       1      -1     -18        0.000000        2.302173        0.115852
       1      -1     -18        0.000000        2.325941        0.052177
      -1      -1      18        0.000000        2.278157        0.082707
       1       1     -18        0.000000        2.256103        0.125375
      -1       1      18        0.000000        2.368544        0.077256
       0      -1     -18        0.000000        2.293469        0.066363
       0      -1      18        0.000000        2.343075        0.086972
       0      -1      18        0.000000        2.282542        0.073470
       0      -1     -18        0.000000        2.224860        0.105898
       0       1     -18        0.000000        2.202272        0.123811
      -1      -1     -18        0.000000        7.076722        0.161522
      -1      -1     -18        0.000000        7.264296        0.147415
       1      -1      18        0.000000        7.246378        0.151310
      -1       1     -18        0.000000        7.182618        0.162646
      -1       1     -18        0.000000        6.937579        0.152301
      -2      -1     -18        0.000000        6.247399        0.131028
       2      -1      18        0.000000        6.232175        0.134634
      -2      -1     -18        0.000000        6.255398        0.139026
      -2       1     -18        0.000000        5.958188        0.149573
      -2       1     -18        0.000000        6.020797        0.133523
      -2       1     -18        0.000000        5.479051        0.174336
      -3      -1     -18        0.000000        6.754998        0.152726
       3      -1      18        0.000000        6.738694        0.153863
      -3       1     -18        0.000000        6.816157        0.150574
       3       1      18        0.000000        6.850547        0.152040
      -3       1     -18        0.000000        6.725325        0.175516
      -4      -1     -18        0.000000        3.343651        0.134289
       4      -1      18        0.000000        3.312099        0.130904
       4       1      18        0.000000        3.306055        0.129579
      -4       1     -18        0.000000        3.555278        0.117255
      -5      -2      18        0.000000        0.509902        0.509902
       4      -2     -18        0.000000        0.787401        0.487401
      -4      -2      18        0.000000        0.938083        0.338083
       4       2     -18        0.000000        0.754983        0.754983
      -3      -2      18        0.000000        2.817801        0.115949
       3      -2     -18        0.000000        2.649528        0.137557
      -3       2      18        0.000000        2.541653        0.104441
       3       2     -18        0.000000        2.600000        0.183391
      -2      -2      18        0.000000        0.447214        0.447214
       2      -2     -18        0.000000        0.400000        0.400000
      -2       2      18        0.000000        0.400000        0.400000
      -1      -2      18        0.000000        1.095445        0.100458
       1      -2     -18        0.000000        1.053565        0.058578
       1      -2     -18        0.000000        1.024695        0.147199
      -1      -2      18        0.000000        1.240967        0.053533
       1       2     -18        0.000000        1.063015        0.174195
       0      -2     -18        0.000000        8.358229        0.182656
       0      -2     -18        0.000000        8.503529        0.168062
       0      -2      18        0.000000        8.442748        0.174133
       0       2     -18        0.000000        8.254090        0.189972
      -1      -2     -18        0.000000        3.831449        0.115268
       1      -2      18        0.000000        3.792097        0.104279
      -1      -2     -18        0.000000        3.770942        0.096707
      -1       2     -18        0.000000        3.840573        0.092240
      -1       2     -18        0.000000        4.077990        0.133373
      -2      -2     -18        0.000000        0.974679        0.213102
      -2      -2     -18        0.000000        1.067708        0.129625
       2      -2      18        0.000000        0.916515        0.141918
      -2      -2     -18        0.000000        0.648074        0.331846
      -2       2     -18        0.000000        0.900000        0.125403
      -2       2     -18        0.000000        0.989949        0.189949
      -3      -2     -18        0.000000        1.529706        0.133282
       3      -2      18        0.000000        1.224745        0.180714
      -3       2     -18        0.000000        1.562050        0.212976
      -3       2     -18        0.000000        1.545962        0.121182
       4      -2      18        0.000000        3.312099        0.141926
      -4      -2     -18        0.000000        3.535534        0.126722
       4       2      18        0.000000        3.471311        0.121684
      -4       2     -18        0.000000        3.283291        0.127344
       4      -3     -18        0.000000        0.911043        0.463830
       4       3     -18        0.000000        0.818535        0.818535
      -3      -3      18        0.000000        3.120897        0.115901
       3      -3     -18        0.000000        3.052868        0.133964
       3       3     -18        0.000000        3.114482        0.175095
      -2      -3      18        0.000000        0.447214        0.447214
       2      -3     -18        0.000000        0.700000        0.220417
      -2      -3      18        0.000000        0.200000        0.269042
       2       3     -18        0.000000        0.714143        0.469194
      -2       3      18        0.000000        0.316228        0.316228
       1      -3     -18        0.000000        5.506360        0.112845
      -1      -3      18        0.000000        5.410176        0.123400
       1      -3     -18        0.000000        5.297169        0.136743
       1       3     -18        0.000000        5.486347        0.148744
       0      -3     -18        0.000000        5.866856        0.144094
       0      -3     -18        0.000000        5.821512        0.128534
       0      -3      18        0.000000        5.806031        0.135053
       0      -3     -18        0.000000        6.028267        0.134202
       0       3     -18        0.000000        6.121274        0.155539
       1      -3      18        0.000000        1.552417        0.106734
      -1      -3     -18        0.000000        1.555635        0.096183
      -1      -3     -18        0.000000        1.634013        0.127362
      -1       3     -18        0.000000        1.691153        0.248933
       2      -3      18        0.000000        0.700000        0.210102
      -2      -3     -18        0.000000        0.728011        0.303747
      -2      -3     -18        0.000000        0.692820        0.192820
      -2       3     -18        0.000000        0.469042        0.469042
      -3      -3     -18        0.000000        1.228821        0.151788
       3      -3      18        0.000000        0.830662        0.247567
      -3       3     -18        0.000000        1.126943        0.320717
      -4      -3     -18        0.000000        0.509902        0.509902
       4      -3      18        0.000000        0.877496        0.367594
       4       3      18        0.000000        0.538516        0.538516
      -4       3     -18        0.000000        0.761577        0.761577
      -4      -4      18        0.000000        0.360555        0.451849
       3      -4     -18        0.000000        2.801785        0.146602
      -3      -4      18        0.000000        3.082207        0.119101
       3       4     -18        0.000000        3.275668        0.232643
      -2      -4      18        0.000000        2.209072        0.113840
       2      -4     -18        0.000000        2.321637        0.133030
      -2      -4      18        0.000000        2.126029        0.103654
       2       4     -18        0.000000        2.509980        0.181891
       1      -4     -18        0.000000        2.271563        0.119820
       1      -4     -18        0.000000        2.416609        0.073534
      -1      -4      18        0.000000        2.439262        0.096187
       1       4     -18        0.000000        2.622975        0.171445
       0      -4      18        0.000000        0.412311        0.412311
       0      -4     -18        0.000000        0.685565        0.128789
       1      -4      18        0.000000        1.330413        0.122109
      -1      -4     -18        0.000000        1.634013        0.137351
      -1      -4     -18        0.000000        1.493318        0.096894
      -1       4     -18        0.000000        1.280625        0.474399
      -2      -4     -18        0.000000        0.538516        0.538516
       2      -4      18        0.000000        0.806226        0.181726
      -2      -4     -18        0.000000        0.678233        0.253969
      -2       4     -18        0.000000        0.538516        0.538516
      -3      -4     -18        0.000000        0.264575        0.383499
       3      -4      18        0.000000        0.264575        0.398750
      -3       4     -18        0.000000        0.509902        0.509902
      -4      -4     -18        0.000000        0.921954        0.356269
      -4      -5      18        0.000000        4.516636        0.154297
       4       5     -18        0.000000        3.479943        0.397736
      -3      -5      18        0.000000        4.660472        0.138304
       3      -5     -18        0.000000        4.756049        0.149532
      -2      -5      18        0.000000        1.004988        0.168328
       2      -5     -18        0.000000        0.818535        0.252850
      -2      -5      18        0.000000        0.600000        0.253590
       2       5     -18        0.000000        0.458258        0.600043
      -1      -5      18        0.000000        1.144552        0.144552
       1      -5     -18        0.000000        1.280625        0.144843
       1       5     -18        0.000000        1.486607        0.324712
       0      -5      18        0.000000        0.877496        0.163354
       0      -5     -18        0.000000        1.077033        0.107497
       0      -5     -18        0.000000        0.916515        0.209408
       0       5     -18        0.000000        0.866025        0.866025
       1      -5      18        0.000000        1.048809        0.165633
      -1      -5     -18        0.000000        0.984886        0.223308
      -1      -5     -18        0.000000        1.307670        0.111844
      -1       5     -18        0.000000        1.326650        0.686337
      -2      -5     -18        0.000000        1.519868        0.178228
      -2      -5     -18        0.000000        1.593738        0.130864
       2      -5      18        0.000000        1.509967        0.164604
      -2       5     -18        0.000000        1.694107        0.227820
       3      -5      18        0.000000        1.118034        0.212495
      -3      -5     -18        0.000000        1.479865        0.168377
      -3       5     -18        0.000000        1.345362        0.360477
      -4      -5     -18        0.000000        3.019934        0.163362
       4      -5      18        0.000000        2.952965        0.156538
      -4       5     -18        0.000000        2.580698        0.315747
       3      -6     -18        0.000000        2.521904        0.166060
      -3      -6      18        0.000000        2.461707        0.150863
       3       6     -18        0.000000        1.577973        0.796948
       2      -6     -18        0.000000        2.092845        0.153773
      -2      -6      18        0.000000        2.044505        0.131392
      -2      -6      18        0.000000        1.964688        0.128932
       2       6     -18        0.000000        0.331662        0.825921
      -1      -6      18        0.000000        2.796426        0.109421
       1      -6     -18        0.000000        2.723968        0.166625
      -1      -6      18        0.000000        2.725803        0.108552
       1       6     -18        0.000000        2.334524        0.299825
       0      -6     -18        0.000000        0.848528        0.274072
       0      -6     -18        0.000000        0.860233        0.160233
       0      -6      18        0.000000        1.029563        0.152067
      -2      -6     -18        0.000000        2.773085        0.121670
       2      -6      18        0.000000        2.605763        0.131899
      -2      -6     -18        0.000000        2.816026        0.166497
      -2       6     -18        0.000000        2.551470        0.208395
      -3      -6     -18        0.000000        4.828043        0.140826
       3      -6      18        0.000000        4.946716        0.143592
      -3       6     -18        0.000000        4.832184        0.183528
       3      -7     -18        0.000000        0.608276        0.608276
      -2      -7      18        0.000000        3.149603        0.134640
      -2      -7      18        0.000000        2.900000        0.146820
       2      -7     -18        0.000000        2.801785        0.173097
       2       7     -18        0.000000        2.315167        0.383847
      -1      -7      18        0.000000        3.551056        0.121771
       1      -7     -18        0.000000        3.640055        0.147205
      -1      -7      18        0.000000        3.586084        0.132101
       0      -7     -18        0.000000        1.204159        0.136452
       0      -7     -18        0.000000        1.208305        0.218355
       0      -7      18        0.000000        0.663325        0.380482
       0       7     -18        0.000000        1.220656        0.997049
      -1      -7     -18        0.000000        2.282542        0.156513
       1      -7      18        0.000000        1.905256        0.147416
      -1      -7     -18        0.000000        2.262742        0.122648
      -2      -7     -18        0.000000        3.552464        0.120263
       2      -7      18        0.000000        3.044667        0.146392
      -2      -7     -18        0.000000        3.419064        0.177151
      -2       7     -18        0.000000        3.125700        0.194830
       3      -7      18        0.000000        2.102380        0.165888
      -3      -7     -18        0.000000        1.941649        0.192363
      -3       7     -18        0.000000        2.037155        0.285013
      -2      -8      18        0.000000        1.183216        0.288789
      -2      -8      18        0.000000        1.322876        0.236598
       2      -8     -18        0.000000        1.240967        0.308229
       2       8     -18        0.000000        1.772005        0.757115
      -1      -8      18        0.000000        1.646208        0.169725
      -1      -8      18        0.000000        1.417745        0.217745
       1      -8     -18        0.000000        1.311488        0.272257
       0      -8      18        0.000000        4.052160        0.149597
       0      -8     -18        0.000000        4.152108        0.160867
       0      -8      18        0.000000        4.358899        0.123335
       0      -8     -18        0.000000        4.409082        0.118394
      -1      -8     -18        0.000000        1.897367        0.206213
      -1      -8     -18        0.000000        2.080865        0.131506
       1      -8      18        0.000000        1.992486        0.162185
      -2      -8     -18        0.000000        1.200000        0.256602
       2      -8      18        0.000000        1.220656        0.256290
      -2       8     -18        0.000000        0.866025        0.866025
      -2      -9      18        0.000000        1.456022        0.298438
      -2      -9      18        0.000000        1.095445        0.708147
      -1      -9      18        0.000000        1.928730        0.188041
      -1      -9      18        0.000000        2.275961        0.171205
       1      -9     -18        0.000000        2.109502        0.312282
       0      -9     -18        0.000000        1.113553        0.230377
       0      -9      18        0.000000        1.024695        0.324695
       0      -9      18        0.000000        0.984886        0.344573
       0      -9     -18        0.000000        1.029563        0.446468
      -1      -9     -18        0.000000        1.606238        0.283362
      -1      -9     -18        0.000000        2.032240        0.158741
       1      -9      18        0.000000        2.066398        0.200922
      -5       0      19        0.000000        2.256103        0.189705
       4       0     -19        0.000000        0.685565        0.685565
       3       0     -19        0.000000        2.422808        0.164490
      -3       0      19        0.000000        2.569047        0.105310
      -2       0      19        0.000000        0.000000        0.387298
       1       0     -19        0.000000        4.080441        0.120643
      -1       0      19        0.000000        4.048456        0.098773
       0       0     -19        0.000000        0.435890        0.119662
       0       0      19        0.000000        0.282843        0.282843
       0       0     -19        0.000000        0.632456        0.258290
       1       0      19        0.000000        7.746612        0.161100
      -1       0     -19        0.000000        7.640681        0.159371
      -1       0     -19        0.000000        7.602631        0.172961
      -2       0     -19        0.000000        0.556776        0.240549
      -2       0     -19        0.000000        0.529150        0.529150
       2       0      19        0.000000        0.600000        0.212702
      -3       0     -19        0.000000        3.749667        0.110986
      -3       0     -19        0.000000        3.674235        0.157134
       3       0      19        0.000000        3.749667        0.113735
      -5      -1      19        0.000000        1.300000        0.325321
       4      -1     -19        0.000000        1.902630        0.202630
      -4      -1      19        0.000000        1.892089        0.162927
       4       1     -19        0.000000        1.892089        0.233776
      -4       1      19        0.000000        2.116601        0.136702
       3      -1     -19        0.000000        1.884144        0.152094
      -3      -1      19        0.000000        1.989975        0.119146
      -3       1      19        0.000000        1.729162        0.126040
       3       1     -19        0.000000        1.835756        0.177444
      -2      -1      19        0.000000        0.435890        0.235890
      -2      -1      19        0.000000        0.331662        0.331662
      -2       1      19        0.000000        0.173205        0.274009
       1      -1     -19        0.000000        3.321144        0.114900
      -1      -1      19        0.000000        3.258834        0.091817
       1      -1     -19        0.000000        3.293934        0.067481
      -1       1      19        0.000000        3.340659        0.086431
       1       1     -19        0.000000        3.181195        0.123418
       0      -1     -19        0.000000        2.894823        0.073476
       0      -1      19        0.000000        2.863564        0.088677
       0      -1     -19        0.000000        2.894823        0.107351
       0       1     -19        0.000000        2.846050        0.116581
       1      -1      19        0.000000        0.412311        0.412311
      -1      -1     -19        0.000000        0.458258        0.458258
      -1      -1     -19        0.000000        0.100000        0.312311
      -1       1     -19        0.000000        0.282843        0.282843
      -1       1     -19        0.000000        0.556776        0.556776
       2      -1      19        0.000000        1.421267        0.117427
      -2      -1     -19        0.000000        1.513275        0.113275
      -2      -1     -19        0.000000        1.442221        0.134551
      -2      -1     -19        0.000000        1.516575        0.152757
      -2       1     -19        0.000000        1.236932        0.105561
      -2       1     -19        0.000000        1.300000        0.168629
       2       1      19        0.000000        1.345362        0.120618
       3      -1      19        0.000000        1.920937        0.132083
      -3      -1     -19        0.000000        2.004994        0.120849
       3       1      19        0.000000        2.024846        0.124846
      -3       1     -19        0.000000        2.017424        0.187124
      -3       1     -19        0.000000        2.078461        0.116319
       4      -1      19        0.000000        2.204541        0.142988
      -4      -1     -19        0.000000        2.441311        0.145663
      -4       1     -19        0.000000        2.553429        0.128558
       4       1      19        0.000000        2.313007        0.145058
       4      -2     -19        0.000000        2.701851        0.189880
      -4      -2      19        0.000000        2.925748        0.152663
       3      -2     -19        0.000000        0.830662        0.282940
      -3      -2      19        0.000000        0.754983        0.285942
      -3       2      19        0.000000        0.500000        0.500000
      -2      -2      19        0.000000        2.088061        0.103118
       2      -2     -19        0.000000        2.284732        0.126029
      -2      -2      19        0.000000        2.286919        0.084648
      -2       2      19        0.000000        2.202272        0.085671
       2       2     -19        0.000000        2.181742        0.161841
      -2       2      19        0.000000        2.188607        0.088607
      -1      -2      19        0.000000        8.130806        0.163999
      -1      -2      19        0.000000        7.810890        0.161707
       1      -2     -19        0.000000        8.129576        0.157123
       1      -2     -19        0.000000        7.947956        0.177499
       1       2     -19        0.000000        7.919596        0.184610
       0      -2      19        0.000000        2.844293        0.092929
       0      -2     -19        0.000000        2.847806        0.076525
       0      -2     -19        0.000000        2.753180        0.116895
       0       2     -19        0.000000        2.808914        0.127497
      -1      -2     -19        0.000000        2.537716        0.088226
      -1      -2     -19        0.000000        2.465766        0.122691
       1      -2      19        0.000000        2.649528        0.094142
      -1       2     -19        0.000000        2.749545        0.153394
      -1       2     -19        0.000000        2.414539        0.077875
       2      -2      19        0.000000        2.249444        0.107016
      -2      -2     -19        0.000000        2.397916        0.095743
      -2      -2     -19        0.000000        2.046949        0.154860
      -2       2     -19        0.000000        2.092845        0.130703
      -2       2     -19        0.000000        2.121320        0.094007
      -2       2     -19        0.000000        2.090454        0.246546
      -3      -2     -19        0.000000        1.865476        0.216234
       3      -2      19        0.000000        1.749286        0.139938
      -3       2     -19        0.000000        1.769181        0.194379
      -3       2     -19        0.000000        2.046949        0.192225
       4      -2      19        0.000000        1.367479        0.192745
      -4      -2     -19        0.000000        1.634013        0.157531
      -4       2     -19        0.000000        1.280625        0.194347
      -4       2     -19        0.000000        0.648074        0.648074
       4       2      19        0.000000        1.469694        0.169694
      -4      -3      19        0.000000        0.774597        0.491754
      -3      -3      19        0.000000        1.649242        0.238569
       3      -3     -19        0.000000        1.473092        0.184682
       3       3     -19        0.000000        1.700000        0.203337
      -2      -3      19        0.000000        7.543872        0.156044
      -2      -3      19        0.000000        7.371567        0.163932
       2      -3     -19        0.000000        7.509993        0.170375
       2      -3     -19        0.000000        7.570337        0.149420
       2       3     -19        0.000000        7.378347        0.184599
       1      -3     -19        0.000000        2.022375        0.114496
       1      -3     -19        0.000000        1.846619        0.071795
      -1      -3      19        0.000000        1.964688        0.099212
       1       3     -19        0.000000        2.080865        0.159928
       0      -3     -19        0.000000        2.621068        0.081383
       0      -3     -19        0.000000        2.803569        0.116563
       0      -3      19        0.000000        2.758623        0.094040
       0       3     -19        0.000000        2.894823        0.152561
      -1      -3     -19        0.000000        3.789459        0.094868
       1      -3      19        0.000000        3.733631        0.105960
      -1      -3     -19        0.000000        3.716181        0.118960
      -1       3     -19        0.000000        3.312099        0.218557
      -2      -3     -19        0.000000        1.483240        0.119422
      -2      -3     -19        0.000000        1.763519        0.141792
       2      -3      19        0.000000        1.493318        0.125839
      -3      -3     -19        0.000000        0.741620        0.305730
      -3       3     -19        0.000000        1.126943        0.290283
      -4      -3     -19        0.000000        1.723369        0.174175
       4      -3      19        0.000000        1.797220        0.160150
      -4       3     -19        0.000000        1.688194        0.342832
       4       3      19        0.000000        1.860108        0.160108
      -4      -4      19        0.000000        3.635932        0.163181
       3      -4     -19        0.000000        5.274467        0.152944
      -3      -4      19        0.000000        5.323533        0.141834
       3       4     -19        0.000000        6.048967        0.222304
       2      -4     -19        0.000000        1.371131        0.150475
      -2      -4      19        0.000000        1.392839        0.131887
      -2      -4      19        0.000000        1.449138        0.107497
       2       4     -19        0.000000        1.618641        0.243869
      -1      -4      19        0.000000        1.964688        0.101895
       1      -4     -19        0.000000        1.819341        0.146020
       1      -4     -19        0.000000        1.972308        0.077579
       1       4     -19        0.000000        1.946792        0.194651
       0      -4     -19        0.000000        2.968164        0.083723
       0      -4     -19        0.000000        2.918904        0.120690
       0      -4      19        0.000000        2.949576        0.101770
      -1      -4     -19        0.000000        2.366432        0.094869
      -1      -4     -19        0.000000        2.477902        0.132694
       1      -4      19        0.000000        2.475884        0.103122
      -1       4     -19        0.000000        2.355844        0.287028
      -2      -4     -19        0.000000        1.126943        0.152263
      -2      -4     -19        0.000000        0.964365        0.271545
       2      -4      19        0.000000        1.077033        0.149671
       3      -4      19        0.000000        1.195826        0.180937
      -3      -4     -19        0.000000        1.208305        0.188501
      -3       4     -19        0.000000        1.542725        0.262100
      -4      -4     -19        0.000000        0.721110        0.721110
      -4      -5      19        0.000000        4.442972        0.165122
       4       5     -19        0.000000        4.793746        0.385799
      -3      -5      19        0.000000        3.088689        0.132340
       3      -5     -19        0.000000        2.851315        0.164310
       2      -5     -19        0.000000        0.223607        0.384669
      -1      -5      19        0.000000        2.190890        0.119659
       1      -5     -19        0.000000        2.154066        0.087668
       1      -5     -19        0.000000        2.218107        0.139646
       1       5     -19        0.000000        1.754993        0.319723
       0      -5     -19        0.000000        0.556776        0.556776
       0      -5     -19        0.000000        0.447214        0.305792
       0      -5      19        0.000000        0.574456        0.291614
      -1      -5     -19        0.000000        0.768115        0.309857
      -1      -5     -19        0.000000        0.424264        0.424264
       1      -5      19        0.000000        0.500000        0.500000
      -1       5     -19        0.000000        0.591608        0.685107
       2      -5      19        0.000000        1.174734        0.164784
      -2      -5     -19        0.000000        1.337909        0.193357
      -2      -5     -19        0.000000        1.029563        0.366238
      -2       5     -19        0.000000        1.539480        0.224186
      -3       5     -19        0.000000        0.565685        0.565685
       4      -5      19        0.000000        5.279204        0.160611
      -2      -6      19        0.000000        3.193744        0.118033
       2      -6     -19        0.000000        2.893095        0.158136
      -2      -6      19        0.000000        2.971532        0.123725
       2       6     -19        0.000000        2.130728        0.395792
      -1      -6      19        0.000000        1.220656        0.171847
       1      -6     -19        0.000000        1.288410        0.113676
       1      -6     -19        0.000000        1.224745        0.180714
      -1      -6      19        0.000000        1.260952        0.147399
       1       6     -19        0.000000        0.591608        0.661388
       0      -6     -19        0.000000        0.479583        0.479583
       0      -6      19        0.000000        0.583095        0.483095
       0      -6     -19        0.000000        0.547723        0.547723
       1      -6      19        0.000000        0.500000        0.500000
      -1      -6     -19        0.000000        0.565685        0.465685
      -2      -6     -19        0.000000        0.793725        0.274110
       2      -6      19        0.000000        0.547723        0.547723
      -2       6     -19        0.000000        0.953939        0.370844
       3      -6      19        0.000000        3.725587        0.138109
      -3      -6     -19        0.000000        3.765634        0.137963
      -3       6     -19        0.000000        3.655133        0.196810
       3       7     -19        0.000000        1.104536        1.104536
      -2      -7      19        0.000000        0.994987        0.294987
       2      -7     -19        0.000000        1.034408        0.306397
      -2      -7      19        0.000000        1.109054        0.237274
       2       7     -19        0.000000        1.479865        0.879865
      -1      -7      19        0.000000        1.459452        0.163304
       1      -7     -19        0.000000        0.888819        0.359669
      -1      -7      19        0.000000        0.948683        0.277863
       1       7     -19        0.000000        1.360147        0.751871
       0      -7     -19        0.000000        1.702939        0.209620
       0      -7     -19        0.000000        1.593738        0.175993
       0      -7      19        0.000000        1.717556        0.145933
       0       7     -19        0.000000        1.349074        0.869491
      -1      -7     -19        0.000000        0.346410        0.447315
      -1      -7     -19        0.000000        0.818535        0.244079
      -2      -7     -19        0.000000        4.750789        0.178044
       2      -7      19        0.000000        4.802083        0.148052
      -2      -7     -19        0.000000        4.893874        0.135723
      -2       7     -19        0.000000        4.762352        0.177595
      -3      -7     -19        0.000000        1.204159        0.304159
      -2      -8      19        0.000000        0.223607        0.557418
      -2      -8      19        0.000000        0.938083        0.408933
       2      -8     -19        0.000000        0.435890        0.491472
       1      -8     -19        0.000000        0.692820        0.692820
       1      -8     -19        0.000000        0.964365        0.196251
      -1      -8      19        0.000000        1.104536        0.279915
      -1      -8      19        0.000000        0.979796        0.339483
       0      -8      19        0.000000        1.506652        0.168743
       0      -8     -19        0.000000        1.523155        0.230870
       0      -8      19        0.000000        1.536229        0.187155
       0      -8     -19        0.000000        1.637071        0.157206
      -1      -8     -19        0.000000        5.186521        0.133799
      -1      -8     -19        0.000000        5.002000        0.166713
       1      -8      19        0.000000        5.047772        0.145731
      -2      -8     -19        0.000000        0.707107        0.707107
       2      -8      19        0.000000        0.842615        0.542615
       1      -9     -19        0.000000        0.648074        0.648074
       0      -9     -19        0.000000        3.619392        0.219392
       0      -9      19        0.000000        3.687818        0.160779
       0      -9     -19        0.000000        3.847077        0.132242
       0      -9      19        0.000000        3.667424        0.156014
      -1      -9     -19        0.000000        1.019804        0.312697
      -1      -9     -19        0.000000        0.916515        0.916515
      -4       0      20        0.000000        2.509980        0.143548
       4       0     -20        0.000000        2.569047        0.189971
      -3       0      20        0.000000        0.519615        0.519615
       3       0     -20        0.000000        0.264575        0.435425
      -2       0      20        0.000000        4.248529        0.104859
      -2       0      20        0.000000        4.256759        0.099837
       2       0     -20        0.000000        4.213075        0.133859
       1       0     -20        0.000000        0.200000        0.365685
       0       0     -20        0.000000        2.165641        0.065641
       0       0      20        0.000000        2.193171        0.086040
       0       0     -20        0.000000        2.264950        0.117859
       1       0      20        0.000000        0.387298        0.387298
      -1       0     -20        0.000000        0.223607        0.234651
      -2       0     -20        0.000000        4.547527        0.130514
      -2       0     -20        0.000000        4.006245        0.126812
       2       0      20        0.000000        4.239104        0.112362
      -2       0     -20        0.000000        4.070626        0.110829
       3       0      20        0.000000        0.412311        0.412311
      -3       0     -20        0.000000        0.591608        0.591608
      -4       0     -20        0.000000        3.991240        0.133780
       4       0      20        0.000000        4.288356        0.139863
      -5      -1      20        0.000000        0.938083        0.606421
      -4      -1      20        0.000000        0.741620        0.458777
       4      -1     -20        0.000000        0.447214        0.469302
      -4       1      20        0.000000        0.707107        0.462158
      -3      -1      20        0.000000        3.324154        0.116351
       3      -1     -20        0.000000        3.100000        0.138581
      -3       1      20        0.000000        3.044667        0.118920
       3       1     -20        0.000000        3.271085        0.156603
      -2      -1      20        0.000000        3.260368        0.094930
      -2      -1      20        0.000000        3.173326        0.094365
       2      -1     -20        0.000000        3.069202        0.124715
       2       1     -20        0.000000        3.098387        0.142038
      -2       1      20        0.000000        3.080584        0.092274
      -2       1      20        0.000000        3.349627        0.089259
       1      -1     -20        0.000000        2.553429        0.116218
      -1      -1      20        0.000000        2.622975        0.087231
       1      -1     -20        0.000000        2.584570        0.054747
       1       1     -20        0.000000        2.677686        0.126215
      -1       1      20        0.000000        2.584570        0.082570
       0      -1     -20        0.000000        8.115417        0.161802
       0      -1      20        0.000000        8.179242        0.166752
       0      -1     -20        0.000000        7.993122        0.179672
       0       1     -20        0.000000        7.856844        0.185469
      -1      -1     -20        0.000000        1.356466        0.083674
      -1      -1     -20        0.000000        1.315295        0.149104
       1      -1      20        0.000000        1.204159        0.122494
      -1       1     -20        0.000000        1.183216        0.092345
      -1       1     -20        0.000000        1.382027        0.169592
      -2      -1     -20        0.000000        1.260952        0.170081
      -2      -1     -20        0.000000        1.596872        0.158122
       2      -1      20        0.000000        1.240967        0.131914
      -2      -1     -20        0.000000        1.268858        0.115601
      -2       1     -20        0.000000        1.220656        0.191093
      -2       1     -20        0.000000        1.835756        0.226408
      -2       1     -20        0.000000        1.322876        0.102220
       2       1      20        0.000000        1.157584        0.123176
       3      -1      20        0.000000        3.887158        0.117543
       3       1      20        0.000000        3.925557        0.113734
      -3       1     -20        0.000000        3.327161        0.161723
      -3       1     -20        0.000000        3.860052        0.157350
      -4       1     -20        0.000000        0.244949        0.803860
       4       1      20        0.000000        0.519615        0.519615
      -4       1     -20        0.000000        0.509902        0.509902
      -4      -2      20        0.000000        1.360147        0.219972
       4       2     -20        0.000000        1.228821        0.441420
       3      -2     -20        0.000000        1.763519        0.157281
      -3      -2      20        0.000000        1.928730        0.131510
       3       2     -20        0.000000        1.431782        0.244348
      -3       2      20        0.000000        1.732051        0.119599
      -2      -2      20        0.000000        0.994987        0.140587
       2      -2     -20        0.000000        1.300000        0.159825
      -2      -2      20        0.000000        1.240967        0.100792
      -2       2      20        0.000000        1.178983        0.097317
      -2       2      20        0.000000        1.322876        0.098131
       2       2     -20        0.000000        1.122497        0.228070
       1      -2     -20        0.000000        4.489989        0.127650
       1      -2     -20        0.000000        4.415880        0.096158
      -1      -2      20        0.000000        4.581484        0.107113
       1       2     -20        0.000000        4.441846        0.140684
       0      -2      20        0.000000        1.019804        0.125377
       0      -2     -20        0.000000        1.004988        0.168328
       0      -2     -20        0.000000        1.100000        0.080196
       0       2     -20        0.000000        0.888819        0.256364
       1      -2      20        0.000000        4.749737        0.120482
      -1      -2     -20        0.000000        4.727579        0.131929
      -1      -2     -20        0.000000        4.711688        0.113862
      -1       2     -20        0.000000        5.091169        0.143442
       2      -2      20        0.000000        0.927362        0.192515
      -2      -2     -20        0.000000        0.500000        0.500000
      -2      -2     -20        0.000000        0.900000        0.283559
      -2      -2     -20        0.000000        1.000000        0.157385
      -2       2     -20        0.000000        0.894427        0.139444
      -2       2     -20        0.000000        0.964365        0.236354
      -2       2     -20        0.000000        0.616441        0.616441
      -3      -2     -20        0.000000        1.523155        0.133910
      -3       2     -20        0.000000        1.766352        0.207506
      -3       2     -20        0.000000        1.523155        0.133910
       3       2      20        0.000000        1.516575        0.141802
      -4      -2     -20        0.000000        0.685565        0.512360
       4       2      20        0.000000        0.223607        0.497503
       4      -3     -20        0.000000        1.676305        0.237556
      -4      -3      20        0.000000        1.679286        0.196046
       4       3     -20        0.000000        1.296148        0.453533
      -3      -3      20        0.000000        0.854400        0.246124
       3      -3     -20        0.000000        1.019804        0.245207
       3       3     -20        0.000000        1.039230        0.346410
       2      -3     -20        0.000000        5.125427        0.139446
      -2      -3      20        0.000000        5.160426        0.123562
      -2      -3      20        0.000000        5.086256        0.118359
       2       3     -20        0.000000        5.075431        0.157098
      -1      -3      20        0.000000        1.396424        0.115799
       1      -3     -20        0.000000        1.438749        0.082283
       1      -3     -20        0.000000        1.288410        0.148234
       1       3     -20        0.000000        1.574802        0.171235
       0      -3      20        0.000000        0.435890        0.435890
       0      -3     -20        0.000000        0.173205        0.383571
       0      -3     -20        0.000000        0.479583        0.215008
       0       3     -20        0.000000        0.519615        0.519615
      -1      -3     -20        0.000000        0.806226        0.142901
      -1      -3     -20        0.000000        0.754983        0.245081
       1      -3      20        0.000000        0.754983        0.189298
      -1       3     -20        0.000000        0.900000        0.700000
      -2      -3     -20        0.000000        2.675818        0.140073
      -2      -3     -20        0.000000        2.537716        0.104610
       2      -3      20        0.000000        2.424871        0.118359
      -2       3     -20        0.000000        1.892089        0.295217
      -3      -3     -20        0.000000        2.875761        0.122581
       3      -3      20        0.000000        2.758623        0.129935
      -3       3     -20        0.000000        3.044667        0.175870
      -4      -3     -20        0.000000        0.489898        0.489898
       4      -3      20        0.000000        0.812404        0.438238
      -4       3     -20        0.000000        0.728011        0.728011
       4       3      20        0.000000        0.574456        0.574456
      -4      -4      20        0.000000        1.526434        0.222593
      -3      -4      20        0.000000        3.924283        0.132186
       3       4     -20        0.000000        4.282523        0.205759
       2      -4     -20        0.000000        2.469818        0.139582
      -2      -4      20        0.000000        2.213594        0.118362
      -2      -4      20        0.000000        2.366432        0.108114
       2       4     -20        0.000000        2.758623        0.191523
       1      -4     -20        0.000000        0.616441        0.351866
      -1      -4      20        0.000000        0.591608        0.259945
       1      -4     -20        0.000000        0.387298        0.387298
       1       4     -20        0.000000        0.842615        0.468449
      -1      -4     -20        0.000000        1.989975        0.095245
      -1      -4     -20        0.000000        1.729162        0.148023
       1      -4      20        0.000000        2.002498        0.115702
      -1       4     -20        0.000000        1.483240        0.503444
       2      -4      20        0.000000        2.679552        0.118303
      -2      -4     -20        0.000000        2.535744        0.156669
      -2      -4     -20        0.000000        2.725803        0.108552
       3      -4      20        0.000000        2.177154        0.142455
      -3      -4     -20        0.000000        2.481935        0.138860
      -3       4     -20        0.000000        2.253886        0.209381
      -4      -4     -20        0.000000        0.812404        0.529561
      -4      -5      20        0.000000        2.624881        0.171312
       4       5     -20        0.000000        2.979933        0.450111
      -3      -5      20        0.000000        1.969772        0.150431
       3      -5     -20        0.000000        1.939072        0.172720
       3       5     -20        0.000000        1.811077        0.507237
      -2      -5      20        0.000000        0.264575        0.343701
       2      -5     -20        0.000000        0.519615        0.519615
      -1      -5      20        0.000000        0.787401        0.221715
       1      -5     -20        0.000000        0.346410        0.346410
       1      -5     -20        0.000000        0.632456        0.196566
       1       5     -20        0.000000        0.282843        0.741852
       0      -5     -20        0.000000        1.600000        0.157779
       0      -5      20        0.000000        1.819341        0.116402
       0      -5     -20        0.000000        1.637071        0.100841
       0       5     -20        0.000000        1.187434        0.539360
      -1      -5     -20        0.000000        3.374907        0.100766
      -1      -5     -20        0.000000        3.351119        0.138644
       1      -5      20        0.000000        3.114482        0.127845
      -1       5     -20        0.000000        3.502856        0.273305
      -2      -5     -20        0.000000        0.984886        0.191160
      -2      -5     -20        0.000000        1.053565        0.266165
       2      -5      20        0.000000        0.721110        0.308800
      -2       5     -20        0.000000        0.529150        0.529150
      -3      -5     -20        0.000000        0.489898        0.489898
      -3       5     -20        0.000000        0.877496        0.704291
       4      -5      20        0.000000        0.692820        0.692820
      -3      -6      20        0.000000        0.984886        0.352430
       3      -6     -20        0.000000        0.979796        0.379796
       2      -6     -20        0.000000        0.624500        0.624500
      -2      -6      20        0.000000        0.768115        0.268115
       2       6     -20        0.000000        0.932738        0.932738
      -1      -6      20        0.000000        2.271563        0.115177
       1      -6     -20        0.000000        2.172556        0.152655
       1      -6     -20        0.000000        2.092845        0.105384
      -1      -6      20        0.000000        2.193171        0.129194
       1       6     -20        0.000000        1.493318        0.656658
       0      -6     -20        0.000000        2.002498        0.153174
       0      -6     -20        0.000000        2.007486        0.112756
       0      -6      20        0.000000        2.249444        0.128124
       0       6     -20        0.000000        1.946792        0.400830
       1      -6      20        0.000000        0.331662        0.339158
      -2      -6     -20        0.000000        0.489898        0.489898
      -2      -6     -20        0.000000        0.509902        0.509902
       2      -6      20        0.000000        0.100000        0.548074
       3      -6      20        0.000000        2.816026        0.160842
      -3      -6     -20        0.000000        2.722132        0.158930
      -3       6     -20        0.000000        2.844293        0.257789
       3      -7     -20        0.000000        1.072381        0.409056
       3       7     -20        0.000000        0.866025        0.866025
      -2      -7      20        0.000000        2.066398        0.163768
      -2      -7      20        0.000000        2.088061        0.159331
       2      -7     -20        0.000000        2.063977        0.179832
       2       7     -20        0.000000        1.565248        0.797133
       1      -7     -20        0.000000        1.571623        0.129403
      -1      -7      20        0.000000        1.403567        0.191131
      -1      -7      20        0.000000        1.403567        0.166635
       1      -7     -20        0.000000        1.584298        0.180731
       1       7     -20        0.000000        1.688194        0.639385
       0      -7      20        0.000000        0.556776        0.556776
       0      -7     -20        0.000000        0.447214        0.447214
       0       7     -20        0.000000        0.860233        0.860233
      -1      -7     -20        0.000000        1.268858        0.196477
      -1      -7     -20        0.000000        1.466288        0.225320
       1      -7      20        0.000000        1.240967        0.206559
       2      -7      20        0.000000        1.786057        0.170508
      -2      -7     -20        0.000000        1.915724        0.157885
      -2       7     -20        0.000000        1.459452        0.368581
       3      -7      20        0.000000        2.814249        0.264740
      -2      -8      20        0.000000        0.547723        0.547723
      -2      -8      20        0.000000        0.812404        0.639199
      -1      -8      20        0.000000        0.264575        0.477045
       1      -8     -20        0.000000        0.655744        0.655744
      -1      -8      20        0.000000        0.911043        0.345358
       1      -8     -20        0.000000        0.905539        0.249795
       1       8     -20        0.000000        1.374773        1.374773
       0      -8     -20        0.000000        1.835756        0.207874
       0      -8      20        0.000000        2.027313        0.161838
       0      -8     -20        0.000000        2.056696        0.135759
      -1      -8     -20        0.000000        1.661325        0.184842
       1      -8      20        0.000000        1.526434        0.196020
      -1      -8     -20        0.000000        1.878829        0.223535
       2      -8      20        0.000000        1.431782        0.269887
      -2      -8     -20        0.000000        1.574802        0.222027
      -1      -9      20        0.000000        2.896550        0.200256
      -1      -9      20        0.000000        2.908608        0.166346
       0      -9      20        0.000000        1.552417        0.394834
       0      -9      20        0.000000        1.356466        0.265595
       0      -9     -20        0.000000        1.330413        0.248748
      -3       0      21        0.000000        4.560702        0.119981
       3       0     -21        0.000000        4.320880        0.154346
      -2       0      21        0.000000        0.331662        0.331662
       1       0     -21        0.000000        2.588436        0.130795
      -1       0      21        0.000000        2.749545        0.088718
       0       0      21        0.000000        0.300000        0.300000
       0       0     -21        0.000000        0.000000        0.331662
       0       0     -21        0.000000        0.447214        0.447214
      -1       0     -21        0.000000        3.570714        0.132692
      -1       0     -21        0.000000        3.656501        0.092795
       1       0      21        0.000000        3.651027        0.102788
      -2       0     -21        0.000000        0.529150        0.529150
      -2       0     -21        0.000000        0.000000        0.469042
       2       0      21        0.000000        0.000000        0.479583
      -3       0     -21        0.000000        0.648074        0.648074
       3       0      21        0.000000        0.574456        0.574456
      -5      -1      21        0.000000        0.331662        0.611736
       4      -1     -21        0.000000        2.831960        0.212800
      -4      -1      21        0.000000        3.214032        0.148090
       4       1     -21        0.000000        2.613427        0.213427
      -4       1      21        0.000000        3.034798        0.167744
       3      -1     -21        0.000000        1.403567        0.182911
      -3      -1      21        0.000000        1.876166        0.129741
       3       1     -21        0.000000        1.603122        0.206698
      -3       1      21        0.000000        1.791647        0.124314
       2      -1     -21        0.000000        1.019804        0.201269
      -2      -1      21        0.000000        1.204159        0.117881
      -2      -1      21        0.000000        1.276715        0.093499
      -2       1      21        0.000000        1.161895        0.108330
      -2       1      21        0.000000        1.288410        0.092584
       2       1     -21        0.000000        1.307670        0.189636
      -1      -1      21        0.000000        0.663325        0.143710
       1      -1     -21        0.000000        0.632456        0.258290
      -1       1      21        0.000000        0.583095        0.158831
       0      -1     -21        0.000000        0.678233        0.290935
       0      -1      21        0.000000        0.761577        0.153301
       0      -1     -21        0.000000        0.538516        0.138516
       0       1     -21        0.000000        0.200000        0.400000
      -1      -1     -21        0.000000        3.567913        0.124077
      -1      -1     -21        0.000000        3.574913        0.094970
       1      -1      21        0.000000        3.716181        0.102319
      -1       1     -21        0.000000        3.413210        0.134490
      -1       1     -21        0.000000        3.601389        0.088555
      -2      -1     -21        0.000000        1.178983        0.178983
       2      -1      21        0.000000        1.081665        0.148927
      -2      -1     -21        0.000000        0.994987        0.152372
      -2      -1     -21        0.000000        1.104536        0.244304
      -2       1     -21        0.000000        0.984886        0.223308
       2       1      21        0.000000        1.220656        0.125210
      -2       1     -21        0.000000        1.435270        0.317236
      -2       1     -21        0.000000        0.871780        0.171780
      -3      -1     -21        0.000000        1.224745        0.180714
       3      -1      21        0.000000        1.220656        0.195960
       3       1      21        0.000000        1.224745        0.157037
      -3       1     -21        0.000000        1.360147        0.273869
      -3       1     -21        0.000000        1.220656        0.162355
      -4      -1     -21        0.000000        0.300000        0.468115
       4       1      21        0.000000        0.591608        0.591608
      -4       1     -21        0.000000        0.989949        0.275807
      -4       1     -21        0.000000        0.655744        0.655744
      -4      -2      21        0.000000        0.854400        0.430136
       4      -2     -21        0.000000        1.178983        0.342323
       4       2     -21        0.000000        0.818535        0.818535
      -3      -2      21        0.000000        0.761577        0.314364
       3      -2     -21        0.000000        0.591608        0.591608
      -3       2      21        0.000000        0.700000        0.275736
      -2      -2      21        0.000000        0.728011        0.171235
      -2      -2      21        0.000000        0.663325        0.205067
       2      -2     -21        0.000000        0.943398        0.215387
      -2       2      21        0.000000        0.685565        0.175664
      -2       2      21        0.000000        0.678233        0.178233
       2       2     -21        0.000000        0.447214        0.447214
       1      -2     -21        0.000000        4.469899        0.092686
       1      -2     -21        0.000000        4.427189        0.128352
      -1      -2      21        0.000000        4.513314        0.108771
       1       2     -21        0.000000        4.189272        0.145759
       0      -2     -21        0.000000        2.503997        0.087388
       0      -2     -21        0.000000        2.537716        0.127321
       0      -2      21        0.000000        2.547548        0.098058
       0       2     -21        0.000000        2.611513        0.145747
      -1      -2     -21        0.000000        2.267157        0.145836
      -1      -2     -21        0.000000        2.325941        0.089873
       1      -2      21        0.000000        2.218107        0.108605
      -1       2     -21        0.000000        2.584570        0.186654
      -2      -2     -21        0.000000        4.306971        0.104591
      -2      -2     -21        0.000000        3.923009        0.138831
       2      -2      21        0.000000        4.178516        0.114036
      -2       2     -21        0.000000        3.987480        0.137805
      -2       2     -21        0.000000        3.343651        0.242038
      -2       2     -21        0.000000        4.066940        0.105879
      -3      -2     -21        0.000000        0.458258        0.458258
       3       2      21        0.000000        0.714143        0.301832
      -3       2     -21        0.000000        0.905539        0.573876
      -3       2     -21        0.000000        0.346410        0.346410
       4      -2      21        0.000000        2.638181        0.146194
      -4      -2     -21        0.000000        2.798214        0.144914
      -4       2     -21        0.000000        2.475884        0.139219
       4       2      21        0.000000        2.731300        0.156421
       4      -3     -21        0.000000        1.496663        0.271918
      -4      -3      21        0.000000        1.587451        0.230985
       4       3     -21        0.000000        0.888819        0.888819
      -3      -3      21        0.000000        0.721110        0.360555
       3      -3     -21        0.000000        0.830662        0.330662
       3       3     -21        0.000000        0.984886        0.597587
      -2      -3      21        0.000000        3.697296        0.100075
       2      -3     -21        0.000000        3.708099        0.130390
      -2      -3      21        0.000000        3.660601        0.106730
       2       3     -21        0.000000        3.482815        0.164683
       1      -3     -21        0.000000        2.898275        0.078701
       1      -3     -21        0.000000        2.976575        0.127014
      -1      -3      21        0.000000        3.087070        0.095415
       1       3     -21        0.000000        2.947881        0.155033
       0      -3     -21        0.000000        0.519615        0.219615
       0      -3     -21        0.000000        0.921954        0.207812
       0      -3      21        0.000000        0.938083        0.144358
       1      -3      21        0.000000        2.557342        0.111939
      -1      -3     -21        0.000000        2.707397        0.095884
      -1      -3     -21        0.000000        2.679552        0.128082
      -1       3     -21        0.000000        2.302173        0.247909
      -2      -3     -21        0.000000        3.949684        0.132617
      -2      -3     -21        0.000000        3.866523        0.111526
       2      -3      21        0.000000        3.796051        0.119095
      -3      -3     -21        0.000000        0.282843        0.380482
      -3       3     -21        0.000000        0.761577        0.761577
       4      -3      21        0.000000        1.523155        0.223155
      -4      -3     -21        0.000000        1.609348        0.191603
       4       3      21        0.000000        1.126943        0.339542
      -4       3     -21        0.000000        0.900000        0.900000
      -4      -4      21        0.000000        1.552417        0.240930
       3      -4     -21        0.000000        4.178516        0.151110
      -3      -4      21        0.000000        4.308132        0.133207
       3       4     -21        0.000000        4.583667        0.205311
       2      -4     -21        0.000000        0.812404        0.283254
      -2      -4      21        0.000000        0.842615        0.179290
      -2      -4      21        0.000000        0.714143        0.301832
       2       4     -21        0.000000        1.058301        0.501524
       1      -4     -21        0.000000        0.905539        0.111813
       1      -4     -21        0.000000        0.714143        0.255885
      -1      -4      21        0.000000        0.916515        0.181668
       1       4     -21        0.000000        0.692820        0.692820
       0      -4     -21        0.000000        2.803569        0.090637
       0      -4      21        0.000000        2.903446        0.105233
       0      -4     -21        0.000000        2.861818        0.128688
       0       4     -21        0.000000        2.222611        0.255380
      -1      -4     -21        0.000000        1.000000        0.163340
       1      -4      21        0.000000        1.228821        0.137949
      -1      -4     -21        0.000000        0.974679        0.226348
      -1       4     -21        0.000000        0.964365        0.964365
       2      -4      21        0.000000        1.486607        0.148698
      -2      -4     -21        0.000000        1.536229        0.190867
      -2      -4     -21        0.000000        1.545962        0.149538
      -3      -4     -21        0.000000        2.934280        0.137854
       3      -4      21        0.000000        2.826659        0.141514
      -3       4     -21        0.000000        2.984962        0.183177
      -4       4     -21        0.000000        4.142463        0.256591
       4       5     -21        0.000000        2.754995        0.530136
      -3      -5      21        0.000000        0.424264        0.424264
       2      -5     -21        0.000000        1.414214        0.181331
      -2      -5      21        0.000000        1.509967        0.127939
      -2      -5      21        0.000000        1.732051        0.138313
       2       5     -21        0.000000        1.435270        0.491872
      -1      -5      21        0.000000        1.109054        0.170970
       1      -5     -21        0.000000        0.836660        0.143840
       1       5     -21        0.000000        1.195826        0.630141
       0      -5     -21        0.000000        0.374166        0.374166
       0      -5     -21        0.000000        0.787401        0.162901
       0      -5      21        0.000000        0.331662        0.331662
      -1      -5     -21        0.000000        0.412311        0.412311
      -1      -5     -21        0.000000        0.529150        0.529150
      -1       5     -21        0.000000        0.984886        0.984886
       2      -5      21        0.000000        0.264575        0.406245
      -2      -5     -21        0.000000        0.435890        0.435890
      -2      -5     -21        0.000000        0.685565        0.353903
       3      -5      21        0.000000        4.184495        0.142219
      -3      -5     -21        0.000000        4.194043        0.138183
      -3       5     -21        0.000000        4.226109        0.192501
       2      -6     -21        0.000000        0.173205        0.540938
      -2      -6      21        0.000000        0.888819        0.280543
      -2      -6      21        0.000000        0.984886        0.393278
       1      -6     -21        0.000000        0.824621        0.184309
       1      -6     -21        0.000000        0.754983        0.367685
      -1      -6      21        0.000000        1.000000        0.187596
      -1      -6      21        0.000000        0.509902        0.509902
       1       6     -21        0.000000        0.458258        0.737569
       0      -6      21        0.000000        1.174734        0.184785
       0      -6     -21        0.000000        1.392839        0.116124
       0      -6     -21        0.000000        1.183216        0.218851
       0       6     -21        0.000000        1.268858        0.712081
      -1      -6     -21        0.000000        2.054264        0.170119
       1      -6      21        0.000000        1.870829        0.144561
      -1      -6     -21        0.000000        1.697056        0.170623
       2      -6      21        0.000000        5.783597        0.151546
      -2      -6     -21        0.000000        5.928744        0.143417
      -2       6     -21        0.000000        5.836095        0.177473
       3      -6      21        0.000000        1.208305        0.264906
      -3      -6     -21        0.000000        1.280625        0.251062
      -3       6     -21        0.000000        1.220656        0.520656
       3      -7     -21        0.000000        0.519615        0.519615
      -2      -7      21        0.000000        0.244949        0.496671
       2      -7     -21        0.000000        0.316228        0.514435
       2       7     -21        0.000000        0.173205        1.134465
       1      -7     -21        0.000000        0.640312        0.340312
      -1      -7      21        0.000000        0.655744        0.514322
      -1      -7      21        0.000000        0.424264        0.424264
       1       7     -21        0.000000        1.077033        1.077033
       0      -7     -21        0.000000        3.190611        0.116526
       0      -7     -21        0.000000        2.984962        0.174268
       0      -7      21        0.000000        3.281768        0.132165
      -1      -7     -21        0.000000        5.423099        0.166674
      -1      -7     -21        0.000000        5.559676        0.139344
       1      -7      21        0.000000        5.623166        0.150507
       2      -7      21        0.000000        2.100000        0.160928
      -2      -7     -21        0.000000        2.537716        0.146063
      -2       7     -21        0.000000        2.097618        0.248293
      -2      -8      21        0.000000        0.574456        0.574456
      -1      -8      21        0.000000        2.905168        0.175699
       1      -8     -21        0.000000        3.109662        0.187335
      -1      -8      21        0.000000        3.240370        0.151681
       1      -8     -21        0.000000        3.174902        0.118760
       1       8     -21        0.000000        1.661325        0.899747
       0      -8      21        0.000000        5.895761        0.159037
       0      -8     -21        0.000000        6.147357        0.142359
       0      -8     -21        0.000000        5.921993        0.177430
      -1      -8     -21        0.000000        2.783882        0.191586
       1      -8      21        0.000000        3.130495        0.165702
      -1      -8     -21        0.000000        2.903446        0.163008
      -1      -9      21        0.000000        5.303772        0.174445
       0      -9      21        0.000000        2.167948        0.188049
       0      -9     -21        0.000000        2.163331        0.160832
       4       0     -22        0.000000        1.407125        0.330092
      -4       0      22        0.000000        1.086278        0.305253
      -3       0      22        0.000000        0.424264        0.424264
       2       0     -22        0.000000        5.696490        0.155732
      -2       0      22        0.000000        5.695612        0.130543
      -2       0      22        0.000000        5.814637        0.124294
      -1       0      22        0.000000        0.479583        0.338162
       0       0     -22        0.000000        1.974842        0.147275
       0       0      22        0.000000        2.066398        0.099166
       0       0     -22        0.000000        1.838478        0.072125
       1       0      22        0.000000        0.412311        0.412311
      -2       0     -22        0.000000        2.114237        0.141929
      -2       0     -22        0.000000        2.249444        0.102353
       2       0      22        0.000000        2.186321        0.115090
      -2       0     -22        0.000000        2.582634        0.186805
       3       0      22        0.000000        0.244949        0.395363
      -3       0     -22        0.000000        0.500000        0.500000
      -4       0     -22        0.000000        2.527845        0.146669
       4       0      22        0.000000        2.493993        0.159469
      -4      -1      22        0.000000        0.984886        0.336812
       4      -1     -22        0.000000        1.236932        0.382531
      -4       1      22        0.000000        0.774597        0.550990
      -3      -1      22        0.000000        3.452535        0.120869
       3      -1     -22        0.000000        3.306055        0.154865
      -3       1      22        0.000000        3.402940        0.115083
       3       1     -22        0.000000        3.330165        0.171051
      -2      -1      22        0.000000        2.080865        0.100966
      -2      -1      22        0.000000        1.977372        0.101206
       2      -1     -22        0.000000        2.111871        0.147183
      -2       1      22        0.000000        1.959592        0.102174
       2       1     -22        0.000000        2.009975        0.163357
      -2       1      22        0.000000        1.992486        0.103042
       1      -1     -22        0.000000        3.416138        0.126761
      -1      -1      22        0.000000        3.442383        0.097237
       1       1     -22        0.000000        3.346640        0.135721
      -1       1      22        0.000000        3.443835        0.095701
       0      -1      22        0.000000        0.264575        0.264575
       0      -1     -22        0.000000        0.519615        0.145450
       0       1      22        0.000000        0.519615        0.219615
      -1      -1     -22        0.000000        1.881489        0.095432
       1      -1      22        0.000000        1.676305        0.117460
      -1      -1     -22        0.000000        1.865476        0.142107
      -1       1     -22        0.000000        1.878829        0.170029
       1       1      22        0.000000        1.843909        0.108974
      -1       1     -22        0.000000        1.939072        0.087046
      -2      -1     -22        0.000000        2.703701        0.148315
      -2      -1     -22        0.000000        2.495997        0.108530
       2      -1      22        0.000000        2.655184        0.109599
      -2      -1     -22        0.000000        2.172556        0.145243
      -2       1     -22        0.000000        2.489980        0.098328
       2       1      22        0.000000        2.469818        0.111853
      -2       1     -22        0.000000        2.402082        0.130519
      -2       1     -22        0.000000        2.104757        0.250033
      -3      -1     -22        0.000000        2.712932        0.116781
       3      -1      22        0.000000        2.615339        0.133405
       3       1      22        0.000000        2.319483        0.137740
      -3       1     -22        0.000000        2.485961        0.117417
      -3       1     -22        0.000000        2.584570        0.203393
       4      -1      22        0.000000        0.500000        0.500000
      -4      -1     -22        0.000000        0.547723        0.547723
       4       1      22        0.000000        0.948683        0.365588
      -4       1     -22        0.000000        0.458258        0.737569
      -4       1     -22        0.000000        0.848528        0.358630
       4      -2     -22        0.000000        2.747726        0.215929
      -4      -2      22        0.000000        2.672078        0.166085
       4       2     -22        0.000000        2.445404        0.245404
       3      -2     -22        0.000000        1.466288        0.209307
      -3      -2      22        0.000000        1.513275        0.145795
      -3       2      22        0.000000        1.232883        0.169868
       3       2     -22        0.000000        0.787401        0.787401
      -2      -2      22        0.000000        0.768115        0.202429
       2      -2     -22        0.000000        1.039230        0.220695
      -2      -2      22        0.000000        0.883176        0.155165
      -2       2      22        0.000000        0.866025        0.144915
       2       2     -22        0.000000        1.131371        0.259591
      -2       2      22        0.000000        0.877496        0.149485
      -1      -2      22        0.000000        2.295648        0.100198
       1      -2     -22        0.000000        2.286919        0.142158
       1      -2     -22        0.000000        2.174856        0.065354
       1       2     -22        0.000000        2.111871        0.159949
       0      -2     -22        0.000000        2.951271        0.129924
       0      -2      22        0.000000        3.014963        0.102919
       0       2     -22        0.000000        3.100000        0.141960
      -1      -2     -22        0.000000        2.247221        0.156766
      -1      -2     -22        0.000000        2.385372        0.098453
       1      -2      22        0.000000        2.517936        0.107542
      -1       2     -22        0.000000        2.657066        0.197391
      -2      -2     -22        0.000000        2.170253        0.111127
      -2      -2     -22        0.000000        2.037155        0.160989
       2      -2      22        0.000000        1.897367        0.125362
      -2       2     -22        0.000000        1.997498        0.294560
      -2       2     -22        0.000000        2.022375        0.114496
      -2       2     -22        0.000000        2.107131        0.162909
       3      -2      22        0.000000        0.608276        0.608276
      -3      -2     -22        0.000000        0.921954        0.229134
      -3       2     -22        0.000000        1.019804        0.183144
       3       2      22        0.000000        1.224745        0.175936
      -3       2     -22        0.000000        1.153256        0.359531
       4      -2      22        0.000000        1.337909        0.233373
      -4      -2     -22        0.000000        1.392839        0.213856
      -4       2     -22        0.000000        1.048809        0.261408
       4       2      22        0.000000        1.489966        0.205443
       4      -3     -22        0.000000        2.014944        0.234495
      -4      -3      22        0.000000        2.100000        0.181667
       4       3     -22        0.000000        1.345362        0.570766
       2      -3     -22        0.000000        2.569047        0.140055
      -2      -3      22        0.000000        2.586503        0.112640
      -2      -3      22        0.000000        2.381176        0.107413
       2       3     -22        0.000000        2.531798        0.201562
       1      -3     -22        0.000000        1.063015        0.202782
      -1      -3      22        0.000000        0.905539        0.163919
       1      -3     -22        0.000000        1.019804        0.092442
       1       3     -22        0.000000        1.044031        0.275916
       0      -3      22        0.000000        4.663690        0.117262
       0      -3     -22        0.000000        4.597826        0.107837
       0      -3     -22        0.000000        4.577117        0.136396
       0       3     -22        0.000000        4.602173        0.161453
      -1      -3     -22        0.000000        3.937004        0.101642
       1      -3      22        0.000000        3.976179        0.112243
      -1      -3     -22        0.000000        3.870400        0.130080
      -1       3     -22        0.000000        3.479943        0.228789
      -2      -3     -22        0.000000        0.547723        0.406301
      -2      -3     -22        0.000000        0.648074        0.648074
       2      -3      22        0.000000        0.200000        0.561577
      -3      -3     -22        0.000000        2.061553        0.140616
       3      -3      22        0.000000        1.915724        0.152205
      -3       3     -22        0.000000        2.140093        0.208773
       4      -3      22        0.000000        1.606238        0.231465
      -4      -3     -22        0.000000        1.523155        0.207860
       4       3      22        0.000000        1.421267        0.229630
      -4       3     -22        0.000000        1.072381        1.072381
      -4      -4      22        0.000000        1.024695        0.416419
      -3      -4      22        0.000000        3.255764        0.142888
       3      -4     -22        0.000000        2.979933        0.171019
       3       4     -22        0.000000        3.244996        0.253341
      -2      -4      22        0.000000        0.721110        0.231212
      -2      -4      22        0.000000        0.316228        0.316228
       1      -4     -22        0.000000        4.786439        0.143164
      -1      -4      22        0.000000        5.026927        0.122848
       1      -4     -22        0.000000        4.795832        0.113952
       1       4     -22        0.000000        5.330103        0.174524
       0      -4     -22        0.000000        3.039737        0.134569
       0      -4      22        0.000000        2.939388        0.109193
       0      -4     -22        0.000000        3.077337        0.087353
       1      -4      22        0.000000        2.213594        0.123140
      -1      -4     -22        0.000000        2.412468        0.099461
      -1      -4     -22        0.000000        2.271563        0.159692
      -1       4     -22        0.000000        1.928730        0.412155
      -2      -4     -22        0.000000        0.624500        0.624500
       3      -4      22        0.000000        0.616441        0.616441
      -3       4     -22        0.000000        1.126943        0.441377
       4      -4      22        0.000000        3.143247        0.161636
       4       4      22        0.000000        2.707397        0.177575
       4       5     -22        0.000000        2.690725        0.562345
      -3      -5      22        0.000000        0.632456        0.632456
      -2      -5      22        0.000000        4.162932        0.124368
       2      -5     -22        0.000000        4.171331        0.146408
      -2      -5      22        0.000000        4.219005        0.117785
       1      -5     -22        0.000000        2.963106        0.090825
      -1      -5      22        0.000000        3.009983        0.113434
       1      -5     -22        0.000000        2.842534        0.153668
       0      -5      22        0.000000        3.237283        0.119591
       0      -5     -22        0.000000        2.979933        0.102434
       0      -5     -22        0.000000        2.645751        0.163817
      -1      -5     -22        0.000000        0.943398        0.496185
      -1      -5     -22        0.000000        0.547723        0.374517
      -1       5     -22        0.000000        1.077033        1.077033
      -2      -5     -22        0.000000        1.063015        0.363015
      -2      -5     -22        0.000000        1.431782        0.155068
       2      -5      22        0.000000        1.276715        0.185843
      -2       5     -22        0.000000        1.360147        0.264702
      -3      -5     -22        0.000000        5.281098        0.150796
       3      -5      22        0.000000        5.318834        0.147761
      -3       5     -22        0.000000        5.153639        0.194809
       3      -6     -22        0.000000        1.624808        0.250035
      -3      -6      22        0.000000        1.900000        0.188276
       3       6     -22        0.000000        1.493318        1.210476
       2      -6     -22        0.000000        1.493318        0.224461
      -2      -6      22        0.000000        1.542725        0.167952
      -2      -6      22        0.000000        1.658312        0.158312
      -1      -6      22        0.000000        2.170253        0.125749
       1      -6     -22        0.000000        2.009975        0.174219
       1      -6     -22        0.000000        2.204541        0.104541
       1       6     -22        0.000000        2.328089        0.381297
       0      -6     -22        0.000000        0.244949        0.462158
       0      -6     -22        0.000000        0.387298        0.387298
       1      -6      22        0.000000        1.865476        0.150833
      -1      -6     -22        0.000000        1.894730        0.185929
      -1      -6     -22        0.000000        2.126029        0.113568
       2      -6      22        0.000000        6.127805        0.152858
      -2      -6     -22        0.000000        6.187083        0.150528
      -2       6     -22        0.000000        5.900847        0.184205
       3      -6      22        0.000000        2.395830        0.173219
      -3      -6     -22        0.000000        2.622975        0.159238
      -3       6     -22        0.000000        2.543619        0.245794
       1      -7     -22        0.000000        1.009950        0.369638
      -1      -7      22        0.000000        1.212436        0.217448
      -1      -7      22        0.000000        1.232883        0.208188
       1       7     -22        0.000000        1.766352        0.604457
       0      -7     -22        0.000000        0.670820        0.670820
       0      -7     -22        0.000000        1.187434        0.187434
       0      -7      22        0.000000        0.608276        0.608276
      -1      -7     -22        0.000000        6.210475        0.147472
       1      -7      22        0.000000        6.100820        0.156074
      -1      -7     -22        0.000000        6.002499        0.174121
      -2      -7     -22        0.000000        1.506652        0.202811
       2      -7      22        0.000000        1.519868        0.212199
      -2       7     -22        0.000000        1.334166        0.375000
      -2      -8      22        0.000000        0.883176        0.659569
      -1      -8      22        0.000000        1.326650        0.231205
       1       8     -22        0.000000        0.806226        0.809324
       0      -8      22        0.000000        3.875564        0.166117
       0      -8     -22        0.000000        4.114608        0.132147
       0      -8     -22        0.000000        3.894868        0.185421
      -1      -8     -22        0.000000        2.002498        0.250357
      -1      -8     -22        0.000000        2.236068        0.167252
       1      -8      22        0.000000        2.147091        0.172249
       0      -9      22        0.000000        1.939072        0.209910
       0      -9     -22        0.000000        2.323790        0.172047
       4       0     -23        0.000000        0.932738        0.791317
       3       0     -23        0.000000        2.302173        0.183211
      -3       0      23        0.000000        2.233831        0.136213
       2       0     -23        0.000000        0.173205        0.505028
      -2       0      23        0.000000        0.447214        0.447214
       1       0     -23        0.000000        1.555635        0.159211
      -1       0      23        0.000000        1.791647        0.103453
       0       0      23        0.000000        0.538516        0.238516
       0       0     -23        0.000000        0.447214        0.202265
       0       0     -23        0.000000        0.591608        0.491608
      -1       0     -23        0.000000        1.933908        0.156269
       1       0      23        0.000000        1.949359        0.108164
      -1       0     -23        0.000000        1.670329        0.095528
       2       0      23        0.000000        0.469042        0.469042
       3       0      23        0.000000        3.797368        0.127218
      -3       0     -23        0.000000        3.666061        0.120641
      -4       0     -23        0.000000        0.685565        0.685565
       4      -1     -23        0.000000        1.345362        0.370683
      -4      -1      23        0.000000        1.374773        0.252275
       3      -1     -23        0.000000        1.345362        0.277655
      -3      -1      23        0.000000        1.676305        0.143334
      -3       1      23        0.000000        1.873499        0.132810
      -2      -1      23        0.000000        1.915724        0.110177
      -2      -1      23        0.000000        1.868154        0.107472
       2      -1     -23        0.000000        1.876166        0.158610
      -2       1      23        0.000000        1.705872        0.099634
      -2       1      23        0.000000        1.868154        0.110315
       2       1     -23        0.000000        1.835756        0.171424
      -1      -1      23        0.000000        1.216553        0.116553
       1      -1     -23        0.000000        1.236932        0.173917
       1       1     -23        0.000000        1.232883        0.203320
      -1       1      23        0.000000        1.385641        0.112848
       0      -1     -23        0.000000        1.131371        0.087340
       0      -1     -23        0.000000        1.148913        0.200229
       0      -1      23        0.000000        1.284523        0.118333
       0       1      23        0.000000        1.228821        0.115268
       0       1     -23        0.000000        1.153256        0.209858
      -1      -1     -23        0.000000        1.424781        0.179791
      -1      -1     -23        0.000000        1.334166        0.097235
       1      -1      23        0.000000        1.396424        0.131513
      -1       1     -23        0.000000        1.244990        0.100438
       1       1      23        0.000000        1.268858        0.119945
      -1       1     -23        0.000000        1.407125        0.198820
      -2      -1     -23        0.000000        1.532971        0.158198
       2      -1      23        0.000000        1.367479        0.138659
      -2      -1     -23        0.000000        1.565248        0.190475
      -2      -1     -23        0.000000        1.417745        0.121597
       2       1      23        0.000000        1.240967        0.145522
      -2       1     -23        0.000000        1.424781        0.109486
      -2       1     -23        0.000000        1.296148        0.200703
      -2       1     -23        0.000000        1.109054        0.561331
       3      -1      23        0.000000        0.374166        0.374166
      -3      -1     -23        0.000000        0.741620        0.305730
      -3       1     -23        0.000000        0.538516        0.538516
      -3       1     -23        0.000000        0.806226        0.806226
       3       1      23        0.000000        0.707107        0.319808
      -4      -1     -23        0.000000        0.500000        0.500000
       4       1      23        0.000000        1.153256        0.298856
      -4       1     -23        0.000000        0.900000        0.343224
      -4      -2      23        0.000000        2.505993        0.169329
       4      -2     -23        0.000000        2.066398        0.241569
       4       2     -23        0.000000        2.351595        0.270730
      -3      -2      23        0.000000        1.072381        0.200601
       3      -2     -23        0.000000        1.048809        0.355989
       3       2     -23        0.000000        0.830662        0.830662
      -2      -2      23        0.000000        0.616441        0.270031
      -2       2      23        0.000000        0.141421        0.368481
      -2       2      23        0.000000        0.824621        0.153801
       1      -2     -23        0.000000        1.039230        0.178998
      -1      -2      23        0.000000        1.113553        0.138873
       1       2     -23        0.000000        0.624500        0.624500
       0      -2      23        0.000000        2.325941        0.110089
       0      -2     -23        0.000000        2.424871        0.133583
       0      -2     -23        0.000000        2.383275        0.085450
       0       2     -23        0.000000        2.672078        0.154142
      -1      -2     -23        0.000000        2.140093        0.095589
       1      -2      23        0.000000        2.213594        0.115977
      -1      -2     -23        0.000000        2.236068        0.157607
      -1       2     -23        0.000000        2.668333        0.182372
       2      -2      23        0.000000        0.519615        0.519615
      -2      -2     -23        0.000000        0.223607        0.342079
      -2       2     -23        0.000000        0.100000        0.944031
       3      -2      23        0.000000        1.424781        0.212345
      -3      -2     -23        0.000000        1.723369        0.148567
      -3       2     -23        0.000000        1.737815        0.137815
      -3       2     -23        0.000000        1.878829        0.238707
       3       2      23        0.000000        1.621727        0.158854
      -4      -2     -23        0.000000        2.387467        0.169360
       4      -2      23        0.000000        2.118962        0.190232
       4       2      23        0.000000        2.317326        0.158623
      -4       2     -23        0.000000        1.918333        0.160493
      -4      -3      23        0.000000        0.959166        0.393481
       4      -3     -23        0.000000        0.509902        0.534129
       3      -3     -23        0.000000        0.848528        0.358630
       3       3     -23        0.000000        0.714143        0.714143
       2      -3     -23        0.000000        0.692820        0.469214
      -2      -3      23        0.000000        0.519615        0.419615
      -2      -3      23        0.000000        0.583095        0.283095
      -2       3      23        0.000000        0.173205        0.418403
       1      -3     -23        0.000000        1.600000        0.113393
       1      -3     -23        0.000000        1.700000        0.147583
      -1      -3      23        0.000000        1.469694        0.124331
       1       3     -23        0.000000        1.841195        0.185901
       0      -3     -23        0.000000        1.609348        0.092773
       0      -3     -23        0.000000        1.483240        0.160364
       0      -3      23        0.000000        1.462874        0.124965
       0       3     -23        0.000000        1.928730        0.214087
      -1      -3     -23        0.000000        0.761577        0.178482
      -1      -3     -23        0.000000        0.100000        0.524500
       1      -3      23        0.000000        0.608276        0.325434
      -1       3     -23        0.000000        1.019804        0.796197
       2      -3      23        0.000000        1.577973        0.146191
      -2      -3     -23        0.000000        1.503330        0.139511
      -2      -3     -23        0.000000        1.649242        0.203559
      -3      -3     -23        0.000000        2.353720        0.131109
       3      -3      23        0.000000        2.095233        0.145874
      -3       3     -23        0.000000        2.313007        0.208250
      -4       3     -23        0.000000        0.692820        0.692820
       3      -4     -23        0.000000        0.854400        0.480235
       3       4     -23        0.000000        0.538516        0.619067
      -2      -4      23        0.000000        0.600000        0.500000
      -2      -4      23        0.000000        0.435890        0.435890
       2      -4     -23        0.000000        0.173205        0.512360
       2       4     -23        0.000000        0.734847        0.734847
      -1      -4      23        0.000000        1.264911        0.142414
       1      -4     -23        0.000000        1.140175        0.297560
       1      -4     -23        0.000000        0.964365        0.121750
       0      -4     -23        0.000000        0.888819        0.272378
       0      -4      23        0.000000        0.655744        0.295189
       0      -4     -23        0.000000        0.663325        0.239061
       0       4     -23        0.000000        0.529150        0.597793
      -1      -4     -23        0.000000        2.565151        0.105476
       1      -4      23        0.000000        2.594224        0.185905
      -1      -4     -23        0.000000        2.636285        0.156366
      -1       4     -23        0.000000        2.653300        0.301705
      -2      -4     -23        0.000000        3.210919        0.164610
      -2      -4     -23        0.000000        2.664583        0.130811
       2      -4      23        0.000000        2.913760        0.128083
       3      -4      23        0.000000        0.938083        0.338083
      -3       4     -23        0.000000        1.195826        0.414801
      -3      -5      23        0.000000        0.489898        0.489898
      -2      -5      23        0.000000        0.435890        0.435890
       2      -5     -23        0.000000        0.818535        0.394271
      -2      -5      23        0.000000        0.509902        0.509902
       1      -5     -23        0.000000        2.256103        0.156103
      -1      -5      23        0.000000        2.513961        0.130686
       1      -5     -23        0.000000        2.295648        0.095648
       1       5     -23        0.000000        1.356466        0.628455
       0      -5     -23        0.000000        3.248076        0.101650
       0      -5     -23        0.000000        3.319639        0.147888
       0      -5      23        0.000000        3.148015        0.143019
       0       5     -23        0.000000        2.389561        0.349953
      -1      -5     -23        0.000000        2.660827        0.170847
       1      -5      23        0.000000        2.584570        0.131001
      -1      -5     -23        0.000000        2.523886        0.117644
      -1       5     -23        0.000000        2.731300        0.341739
      -2      -5     -23        0.000000        0.721110        0.421110
       2      -5      23        0.000000        0.583095        0.583095
      -3      -5     -23        0.000000        0.469042        0.469042
      -3       5     -23        0.000000        0.905539        0.905539
       3      -6     -23        0.000000        0.223607        0.648173
      -3      -6      23        0.000000        1.300000        0.265592
       3       6     -23        0.000000        1.081665        1.081665
      -2      -6      23        0.000000        3.014963        0.142681
      -2      -6      23        0.000000        3.029851        0.150615
       2      -6     -23        0.000000        3.057777        0.178541
       1      -6     -23        0.000000        2.523886        0.191505
      -1      -6      23        0.000000        2.700000        0.142658
       1       6     -23        0.000000        1.819341        0.515500
       0      -6      23        0.000000        0.787401        0.318359
       0      -6     -23        0.000000        0.916515        0.216515
       0      -6     -23        0.000000        0.974679        0.350180
       0       6     -23        0.000000        1.024695        1.024695
      -1      -6     -23        0.000000        0.141421        0.506653
      -1      -6     -23        0.000000        0.927362        0.407747
       3      -6      23        0.000000        2.630589        0.257827
      -2      -7      23        0.000000        1.135782        0.299122
      -2      -7      23        0.000000        1.462874        0.209877
       2      -7     -23        0.000000        1.349074        0.300265
       1      -7     -23        0.000000        0.806226        0.706226
       1       7     -23        0.000000        1.174734        1.174734
       0      -7     -23        0.000000        0.781025        0.356761
       0      -7     -23        0.000000        0.734847        0.734847
       0      -7      23        0.000000        1.039230        0.284247
       1      -7      23        0.000000        1.513275        0.213275
      -1      -7     -23        0.000000        1.813836        0.146503
      -1      -7     -23        0.000000        1.428286        0.283733
       2      -7      23        0.000000        2.574879        0.158269
      -2      -7     -23        0.000000        2.800000        0.148585
      -2       7     -23        0.000000        2.433105        0.239934
      -1      -8      23        0.000000        2.114237        0.188101
      -1      -8      23        0.000000        2.090454        0.187825
       0      -8     -23        0.000000        2.014944        0.160220
       0      -8      23        0.000000        1.643168        0.232494
       0      -8     -23        0.000000        2.051828        0.216072
      -1      -8     -23        0.000000        0.974679        0.674679
      -1      -8     -23        0.000000        1.135782        0.299122
       4       0     -24        0.000000        0.556776        0.556776
       3       0     -24        0.000000        0.842615        0.482060
      -3       0      24        0.000000        0.435890        0.435890
      -2       0      24        0.000000        2.284732        0.107578
      -2       0      24        0.000000        2.549510        0.102062
       2       0     -24        0.000000        2.607681        0.148006
       1       0     -24        0.000000        0.529150        0.529150
      -1       0      24        0.000000        0.282843        0.282843
       0       0     -24        0.000000        3.924283        0.141427
       0       0     -24        0.000000        3.943349        0.091077
       0       0      24        0.000000        4.017462        0.107219
       1       0      24        0.000000        0.360555        0.360555
      -1       0     -24        0.000000        0.479583        0.479583
      -2       0     -24        0.000000        3.882010        0.177958
      -2       0     -24        0.000000        4.039802        0.132117
      -2       0     -24        0.000000        4.131586        0.107906
      -3       0     -24        0.000000        0.400000        0.400000
       3       0      24        0.000000        0.728011        0.396349
       4       0      24        0.000000        1.974842        0.188785
      -4       0     -24        0.000000        1.889444        0.180644
       4      -1     -24        0.000000        0.964365        0.822944
      -4      -1      24        0.000000        0.761577        0.761577
      -3      -1      24        0.000000        0.921954        0.273880
       3      -1     -24        0.000000        0.509902        0.509902
      -3       1      24        0.000000        0.994987        0.233410
      -2      -1      24        0.000000        0.678233        0.219975
      -2       1      24        0.000000        0.316228        0.316228
       2       1     -24        0.000000        0.223607        0.497503
      -1      -1      24        0.000000        3.095158        0.106847
       1      -1     -24        0.000000        3.044667        0.139500
       1       1     -24        0.000000        3.093542        0.152453
      -1       1      24        0.000000        3.257299        0.098186
       0      -1     -24        0.000000        1.109054        0.094164
       0      -1     -24        0.000000        1.058301        0.227638
       0      -1      24        0.000000        1.161895        0.132332
       0       1     -24        0.000000        1.039230        0.239230
       0       1      24        0.000000        1.195826        0.128118
      -1      -1     -24        0.000000        3.906405        0.139443
      -1      -1     -24        0.000000        3.861347        0.102358
       1      -1      24        0.000000        3.900000        0.114501
      -1       1     -24        0.000000        3.905125        0.098552
       1       1      24        0.000000        3.921734        0.112535
      -1       1     -24        0.000000        3.989987        0.152019
      -2      -1     -24        0.000000        2.295648        0.107041
      -2      -1     -24        0.000000        2.163331        0.165832
      -2       1     -24        0.000000        2.393742        0.104637
      -2       1     -24        0.000000        2.059126        0.292774
      -2       1     -24        0.000000        2.154066        0.164091
      -3      -1     -24        0.000000        3.615245        0.126693
       3      -1      24        0.000000        3.586084        0.145154
      -3       1     -24        0.000000        3.666061        0.117822
       3       1      24        0.000000        3.777565        0.132020
       4      -1      24        0.000000        2.085665        0.214837
      -4      -1     -24        0.000000        2.302173        0.166757
       4       1      24        0.000000        2.330236        0.171533
      -4       1     -24        0.000000        2.465766        0.148440
       4      -2     -24        0.000000        0.141421        0.758579
      -4      -2      24        0.000000        1.244990        0.301592
       4       2     -24        0.000000        1.392839        0.515342
       3      -2     -24        0.000000        0.894427        0.374812
      -3      -2      24        0.000000        0.927362        0.279288
      -2      -2      24        0.000000        1.337909        0.129604
       2      -2     -24        0.000000        1.700000        0.176845
      -2      -2      24        0.000000        1.292285        0.143372
      -2       2      24        0.000000        1.307670        0.120235
      -2       2      24        0.000000        1.466288        0.117214
       2       2     -24        0.000000        1.280625        0.275637
       1      -2     -24        0.000000        0.854400        0.262792
      -1      -2      24        0.000000        0.854400        0.206326
      -1       2      24        0.000000        0.984886        0.148226
       1       2     -24        0.000000        0.969536        0.321462
       0      -2     -24        0.000000        3.203123        0.135551
       0      -2      24        0.000000        3.204684        0.115995
       0      -2     -24        0.000000        3.203123        0.088641
       0       2     -24        0.000000        3.223352        0.154150
      -1      -2     -24        0.000000        1.067708        0.231048
      -1      -2     -24        0.000000        0.953939        0.147713
       1      -2      24        0.000000        1.204159        0.145859
      -1       2     -24        0.000000        1.191638        0.367016
       2      -2      24        0.000000        3.815757        0.117108
      -2      -2     -24        0.000000        3.277194        0.169140
      -2      -2     -24        0.000000        3.693237        0.108547
      -2       2     -24        0.000000        3.529873        0.147566
      -2       2     -24        0.000000        3.573514        0.100763
       3      -2      24        0.000000        1.322876        0.209323
      -3      -2     -24        0.000000        1.772005        0.162657
      -3       2     -24        0.000000        1.552417        0.145293
       3       2      24        0.000000        1.493318        0.189478
      -3       2     -24        0.000000        1.783255        0.266680
      -4      -2     -24        0.000000        2.760435        0.232590
       4      -2      24        0.000000        2.229350        0.194651
      -4       2     -24        0.000000        2.204541        0.182166
       4       2      24        0.000000        2.431049        0.172731
      -4      -3      24        0.000000        0.538516        0.538516
       4      -3     -24        0.000000        0.141421        0.807262
       3      -3     -24        0.000000        1.296148        0.266585
      -3      -3      24        0.000000        1.067708        0.249173
       3       3     -24        0.000000        0.871780        0.871780
      -2      -3      24        0.000000        1.673320        0.117685
       2      -3     -24        0.000000        1.667333        0.167333
      -2      -3      24        0.000000        1.658312        0.125341
       2       3     -24        0.000000        1.264911        0.316228
      -2       3      24        0.000000        1.367479        0.138659
       1      -3     -24        0.000000        2.177154        0.159730
      -1      -3      24        0.000000        1.989975        0.116475
       1       3     -24        0.000000        2.334524        0.171193
       0      -3     -24        0.000000        1.077033        0.216800
       0      -3     -24        0.000000        0.830662        0.152429
       0      -3      24        0.000000        0.761577        0.223061
       0       3     -24        0.000000        1.086278        0.351431
      -1      -3     -24        0.000000        4.071855        0.107009
      -1      -3     -24        0.000000        3.832754        0.143580
       1      -3      24        0.000000        4.147288        0.117400
      -1       3     -24        0.000000        3.354102        0.276765
      -2      -3     -24        0.000000        3.410279        0.162202
       2      -3      24        0.000000        3.407345        0.127101
      -2      -3     -24        0.000000        3.366007        0.117930
       3      -3      24        0.000000        2.004994        0.174693
      -3      -3     -24        0.000000        1.992486        0.143162
      -3       3     -24        0.000000        2.177154        0.215012
       4      -3      24        0.000000        1.288410        0.393983
      -4       3     -24        0.000000        0.728011        0.728011
       3      -4     -24        0.000000        0.583095        0.583095
      -3      -4      24        0.000000        0.655744        0.655744
       2      -4     -24        0.000000        0.836660        0.357077
      -1      -4      24        0.000000        0.648074        0.331846
       1      -4     -24        0.000000        0.264575        0.435425
       1       4     -24        0.000000        1.095445        0.520989
       0      -4      24        0.000000        4.089010        0.114088
       0      -4     -24        0.000000        3.938274        0.102912
       0       4     -24        0.000000        3.184337        0.289514
      -1      -4     -24        0.000000        3.768289        0.110421
       1      -4      24        0.000000        3.823611        0.119559
      -1      -4     -24        0.000000        3.682391        0.144029
      -1       4     -24        0.000000        3.458323        0.281847
      -2      -4     -24        0.000000        2.567100        0.194337
      -2      -4     -24        0.000000        2.177154        0.130205
       2      -4      24        0.000000        2.321637        0.146781
       3      -4      24        0.000000        0.728011        0.728011
      -3       4     -24        0.000000        0.877496        0.877496
       3      -5     -24        0.000000        1.356466        0.298165
      -3      -5      24        0.000000        1.536229        0.228559
       3       5     -24        0.000000        0.608276        0.837407
      -2      -5      24        0.000000        1.473092        0.169252
      -2      -5      24        0.000000        1.486607        0.167516
       2      -5     -24        0.000000        1.170470        0.310237
       1      -5     -24        0.000000        1.805547        0.177665
       1       5     -24        0.000000        1.606238        0.479295
       0      -5     -24        0.000000        4.598913        0.113381
       0      -5     -24        0.000000        4.382921        0.152082
       0      -5      24        0.000000        4.531004        0.128732
      -1      -5     -24        0.000000        1.931321        0.128545
       1      -5      24        0.000000        2.102380        0.135148
      -1      -5     -24        0.000000        1.841195        0.188924
      -1       5     -24        0.000000        2.360085        0.460085
      -2      -5     -24        0.000000        0.774597        0.428187
       2      -5      24        0.000000        0.800000        0.341742
      -2       5     -24        0.000000        0.964365        0.416643
       3      -5      24        0.000000        0.754983        0.754983
      -3      -5     -24        0.000000        1.208305        0.280943
      -3       5     -24        0.000000        1.830301        0.326971
       3      -6     -24        0.000000        1.673320        0.273320
      -3      -6      24        0.000000        2.000000        0.282444
      -2      -6      24        0.000000        3.666061        0.137605
      -2      -6      24        0.000000        3.544009        0.141069
       2      -6     -24        0.000000        3.524202        0.176068
      -1      -6      24        0.000000        2.128380        0.135894
       1      -6     -24        0.000000        2.244994        0.178597
       1       6     -24        0.000000        1.113553        1.113553
       0      -6     -24        0.000000        0.000000        0.748331
       0      -6      24        0.000000        0.761577        0.445350
      -1      -6     -24        0.000000        1.063015        0.363015
       1      -6      24        0.000000        0.670820        0.670820
      -1      -6     -24        0.000000        0.761577        0.374279
      -1       6     -24        0.000000        1.609348        0.841233
       2      -6      24        0.000000        1.529706        0.206830
      -2      -6     -24        0.000000        1.691153        0.191153
      -2       6     -24        0.000000        1.204159        0.429563
      -2      -7      24        0.000000        0.854400        0.609451
       2      -7     -24        0.000000        0.529150        0.529150
      -2      -7      24        0.000000        0.994987        0.378546
       1      -7     -24        0.000000        0.346410        0.531086
      -1      -7      24        0.000000        0.748331        0.524725
      -1      -7      24        0.000000        0.921954        0.365178
       1       7     -24        0.000000        1.838478        0.689565
       0      -7     -24        0.000000        2.808914        0.146209
       0      -7     -24        0.000000        2.868798        0.202339
       0      -7      24        0.000000        3.031501        0.148794
      -1      -7     -24        0.000000        1.081665        0.307069
      -1      -7     -24        0.000000        1.407125        0.307125
       1      -7      24        0.000000        0.565685        0.565685
      -1      -8      24        0.000000        3.709447        0.158391
      -1      -8      24        0.000000        3.290897        0.166797
       0      -8      24        0.000000        0.974679        0.495096
       0      -8     -24        0.000000        1.000000        0.344256
      -1      -8     -24        0.000000        2.004994        0.171963
      -3       0      25        0.000000        2.745906        0.198358
       3       0     -25        0.000000        3.122499        0.189923
       2       0     -25        0.000000        0.871780        0.413522
      -2       0      25        0.000000        0.360555        0.360555
      -2       0      25        0.000000        0.670820        0.258510
       1       0     -25        0.000000        3.394113        0.150658
      -1       0      25        0.000000        3.538361        0.103248
       0       0     -25        0.000000        0.556776        0.169478
       0       0     -25        0.000000        0.529150        0.529150
       0       0      25        0.000000        0.574456        0.374456
      -1       0     -25        0.000000        0.223607        0.286295
       1       0      25        0.000000        0.316228        0.316228
      -2       0     -25        0.000000        0.900000        0.900000
       2       0      25        0.000000        0.632456        0.367880
      -2       0     -25        0.000000        0.655744        0.255744
      -3       0     -25        0.000000        0.707107        0.346552
       3       0      25        0.000000        0.000000        0.663325
      -4      -1      25        0.000000        3.988734        0.167740
       4      -1     -25        0.000000        3.993745        0.213533
       4       1     -25        0.000000        3.539774        0.271747
      -3      -1      25        0.000000        0.591608        0.591608
       3      -1     -25        0.000000        0.360555        0.505470
       3       1     -25        0.000000        0.469042        0.469042
       2      -1     -25        0.000000        3.041381        0.193575
      -2      -1      25        0.000000        2.690725        0.119733
      -2      -1      25        0.000000        3.322650        0.103954
      -2       1      25        0.000000        3.173326        0.102496
      -2       1      25        0.000000        2.930870        0.105981
       1       1     -25        0.000000        0.244949        0.462158
      -1       1      25        0.000000        0.387298        0.387298
       0      -1     -25        0.000000        1.800000        0.082444
       0      -1      25        0.000000        1.752142        0.115071
       0      -1     -25        0.000000        1.694107        0.161136
       0       1     -25        0.000000        1.571623        0.189596
       0       1      25        0.000000        1.827567        0.107102
      -1      -1     -25        0.000000        1.224745        0.234795
      -1      -1     -25        0.000000        0.948683        0.130148
       1      -1      25        0.000000        0.989949        0.177546
       1       1      25        0.000000        0.748331        0.219181
      -1       1     -25        0.000000        1.187434        0.287434
      -1       1     -25        0.000000        0.741620        0.175934
       2      -1      25        0.000000        0.000000        0.600000
      -2      -1     -25        0.000000        0.509902        0.509902
      -2      -1     -25        0.000000        0.387298        0.387298
       2       1      25        0.000000        0.469042        0.469042
      -2       1     -25        0.000000        0.685565        0.238352
      -3       1     -25        0.000000        0.754983        0.754983
       3       1      25        0.000000        0.640312        0.640312
      -3       1     -25        0.000000        1.126943        0.215899
       4      -1      25        0.000000        2.946184        0.176707
       4       1      25        0.000000        3.445287        0.161996
       4      -2     -25        0.000000        0.866025        0.866025
      -4      -2      25        0.000000        1.126943        0.371959
       4       2     -25        0.000000        1.431782        0.515267
       3      -2     -25        0.000000        4.725463        0.158188
      -3      -2      25        0.000000        4.850773        0.135903
       3       2     -25        0.000000        4.432832        0.196088
      -2      -2      25        0.000000        0.200000        0.365685
      -2       2      25        0.000000        0.632456        0.286045
      -2       2      25        0.000000        0.489898        0.489898
       1      -2     -25        0.000000        1.939072        0.167067
      -1      -2      25        0.000000        1.705872        0.118421
       1       2     -25        0.000000        1.691153        0.194490
      -1       2      25        0.000000        1.697056        0.115917
       0      -2     -25        0.000000        0.692820        0.409978
       0      -2     -25        0.000000        0.374166        0.374166
       0       2     -25        0.000000        0.547723        0.547723
      -1      -2     -25        0.000000        1.830301        0.181058
      -1      -2     -25        0.000000        1.702939        0.112341
       1      -2      25        0.000000        1.691153        0.132308
      -1       2     -25        0.000000        2.174856        0.220374
       2      -2      25        0.000000        0.806226        0.286611
      -2      -2     -25        0.000000        0.768115        0.248499
      -2       2     -25        0.000000        1.095445        0.276910
      -2       2     -25        0.000000        0.854400        0.176167
       3      -2      25        0.000000        3.474191        0.156059
      -3      -2     -25        0.000000        3.686462        0.122756
      -3       2     -25        0.000000        3.419064        0.197263
      -3       2     -25        0.000000        3.519943        0.118473
       3       2      25        0.000000        3.567913        0.134256
       4      -3     -25        0.000000        1.972308        0.254752
      -4      -3      25        0.000000        1.624808        0.246403
       4       3     -25        0.000000        1.682260        0.441293
      -3      -3      25        0.000000        1.811077        0.164869
       3      -3     -25        0.000000        1.459452        0.251147
       3       3     -25        0.000000        1.334166        0.364630
      -2      -3      25        0.000000        4.008740        0.120296
      -2      -3      25        0.000000        4.079216        0.113109
       2      -3     -25        0.000000        3.807887        0.158229
       2       3     -25        0.000000        4.148494        0.181127
       1      -3     -25        0.000000        0.721110        0.547905
      -1      -3      25        0.000000        0.894427        0.194427
       1       3     -25        0.000000        0.900000        0.464110
       0      -3      25        0.000000        1.892089        0.125737
       0      -3     -25        0.000000        2.024846        0.159370
       0      -3     -25        0.000000        1.897367        0.105719
       0       3     -25        0.000000        2.233831        0.218887
       1      -3      25        0.000000        0.678233        0.454626
      -1      -3     -25        0.000000        0.500000        0.500000
      -1      -3     -25        0.000000        0.624500        0.341657
      -1       3     -25        0.000000        1.019804        1.019804
      -2      -3     -25        0.000000        2.582634        0.133145
      -2      -3     -25        0.000000        2.193171        0.190673
       2      -3      25        0.000000        2.736786        0.134864
      -3      -3     -25        0.000000        0.959166        0.318854
       3      -3      25        0.000000        0.927362        0.344267
       3       3      25        0.000000        0.894427        0.328742
      -3       3     -25        0.000000        1.349074        0.324379
      -3      -4      25        0.000000        0.806226        0.432060
       3      -4     -25        0.000000        0.900000        0.500000
       3       4     -25        0.000000        1.374773        0.491597
      -2      -4      25        0.000000        2.078461        0.126539
      -2      -4      25        0.000000        2.165641        0.128486
       2      -4     -25        0.000000        2.179449        0.179449
       2       4     -25        0.000000        2.435159        0.226087
       1      -4     -25        0.000000        4.588028        0.155196
      -1      -4      25        0.000000        4.718050        0.132203
       1       4     -25        0.000000        5.154610        0.198805
       0      -4     -25        0.000000        0.984886        0.306653
       0      -4     -25        0.000000        1.144552        0.139565
      -1      -4     -25        0.000000        2.416609        0.123140
      -1      -4     -25        0.000000        2.505993        0.167190
       1      -4      25        0.000000        2.317326        0.135584
      -1       4     -25        0.000000        1.486607        0.680381
       2      -4      25        0.000000        0.632456        0.632456
      -2      -4     -25        0.000000        0.424264        0.424264
       3      -4      25        0.000000        0.685565        0.685565
      -3       4     -25        0.000000        1.019804        0.703576
      -3      -5      25        0.000000        1.014889        0.351564
       3      -5     -25        0.000000        1.356466        0.322058
      -2      -5      25        0.000000        0.818535        0.308633
       2      -5     -25        0.000000        0.921954        0.392804
      -1      -5      25        0.000000        2.061553        0.138014
       1      -5     -25        0.000000        2.340940        0.170687
       1       5     -25        0.000000        0.842615        0.842615
       0      -5     -25        0.000000        0.400000        0.400000
       0      -5     -25        0.000000        0.678233        0.678233
       0      -5      25        0.000000        0.692820        0.428245
      -1      -5     -25        0.000000        0.900000        0.400000
      -1       5     -25        0.000000        0.608276        0.784563
       2      -5      25        0.000000        1.157584        0.224846
      -2      -5     -25        0.000000        0.969536        0.291303
      -2       5     -25        0.000000        0.591608        0.591608
      -3      -5     -25        0.000000        1.131371        0.312836
      -3       5     -25        0.000000        1.072381        0.930959
       2      -6     -25        0.000000        1.892089        0.221759
      -2      -6      25        0.000000        1.734935        0.176089
      -2      -6      25        0.000000        1.723369        0.187140
       2       6     -25        0.000000        0.583095        0.930179
       1      -6     -25        0.000000        3.057777        0.188979
      -1      -6      25        0.000000        3.542598        0.138189
       0      -6      25        0.000000        0.360555        0.387776
       0      -6     -25        0.000000        1.228821        0.280137
       0      -6     -25        0.000000        0.412311        0.412311
      -1      -6     -25        0.000000        3.248076        0.125577
      -1      -6     -25        0.000000        3.098387        0.200111
       1      -6      25        0.000000        3.449638        0.139049
      -1       6     -25        0.000000        2.541653        0.444035
      -2      -6     -25        0.000000        0.883176        0.363561
       2      -6      25        0.000000        0.556776        0.556776
      -2       6     -25        0.000000        0.916515        0.716515
      -2      -7      25        0.000000        2.765863        0.222244
      -1      -7      25        0.000000        3.061046        0.155878
      -1      -7      25        0.000000        3.070831        0.182925
       1      -7     -25        0.000000        2.964793        0.207984
       1       7     -25        0.000000        2.559297        0.461679
       0      -7     -25        0.000000        0.774597        0.491754
       0      -7     -25        0.000000        0.860233        0.860233
       0      -7      25        0.000000        0.793725        0.433170
       1      -7      25        0.000000        1.438749        0.230445
      -1      -7     -25        0.000000        1.208305        0.420904
      -1      -7     -25        0.000000        1.417745        0.213585
      -4       0      26        0.000000        1.568439        0.260769
       4       0     -26        0.000000        1.445683        0.471004
       3       0     -26        0.000000        0.264575        0.566087
      -2       0      26        0.000000        0.583095        0.383095
       2       0     -26        0.000000        0.331662        0.429915
      -2       0      26        0.000000        0.424264        0.424264
      -1       0      26        0.000000        0.300000        0.300000
       0       0     -26        0.000000        1.926136        0.165454
       0       0      26        0.000000        2.012461        0.123017
       1       0      26        0.000000        0.264575        0.318520
      -1       0     -26        0.000000        0.400000        0.400000
      -2       0     -26        0.000000        1.609348        0.126108
      -2       0     -26        0.000000        1.449138        0.220317
       2       0      26        0.000000        1.606238        0.157100
       3       0      26        0.000000        0.489898        0.489898
      -3       0     -26        0.000000        0.741620        0.425392
      -4      -1      26        0.000000        1.131371        0.383039
       4      -1     -26        0.000000        1.652271        0.359986
       3      -1     -26        0.000000        0.316228        0.544005
      -3      -1      26        0.000000        0.692820        0.692820
      -3       1      26        0.000000        0.989949        0.261939
       3       1     -26        0.000000        1.208305        0.377642
       2      -1     -26        0.000000        1.174734        0.247372
      -2      -1      26        0.000000        1.161895        0.156907
      -2      -1      26        0.000000        1.545962        0.124695
       2       1     -26        0.000000        1.523155        0.234745
      -2       1      26        0.000000        1.029563        0.175163
      -2       1      26        0.000000        1.157584        0.147633
       1      -1     -26        0.000000        0.374166        0.374166
      -1       1      26        0.000000        0.469042        0.469042
       1       1     -26        0.000000        0.458258        0.458258
       0      -1     -26        0.000000        1.131371        0.214856
       0      -1      26        0.000000        1.100000        0.167262
       0       1     -26        0.000000        0.556776        0.556776
       0       1      26        0.000000        0.600000        0.355051
       1      -1      26        0.000000        1.676305        0.133581
      -1      -1     -26        0.000000        1.307670        0.216798
      -1      -1     -26        0.000000        1.424781        0.117111
       1       1      26        0.000000        1.459452        0.132802
      -1       1     -26        0.000000        1.941649        0.209598
      -1       1     -26        0.000000        1.363818        0.106838
      -2      -1     -26        0.000000        0.000000        0.994987
      -2       1     -26        0.000000        0.489898        0.489898
      -3      -1     -26        0.000000        1.024695        0.230970
       3      -1      26        0.000000        1.126943        0.266710
      -3       1     -26        0.000000        1.389244        0.364549
       3       1      26        0.000000        1.341641        0.210270
      -3       1     -26        0.000000        0.979796        0.265653
      -4      -2      26        0.000000        0.927362        0.566807
       4       2     -26        0.000000        1.187434        0.697536
      -3      -2      26        0.000000        0.948683        0.292939
       3      -2     -26        0.000000        0.916515        0.447474
       3       2     -26        0.000000        0.655744        0.655744
       2      -2     -26        0.000000        0.989949        0.255103
      -2      -2      26        0.000000        0.692820        0.256930
      -2       2      26        0.000000        0.479583        0.479583
      -2       2      26        0.000000        0.556776        0.556776
      -1      -2      26        0.000000        1.596872        0.127178
       1      -2     -26        0.000000        1.788854        0.278887
      -1       2      26        0.000000        1.506652        0.131879
       1       2     -26        0.000000        1.624808        0.348093
       0      -2     -26        0.000000        0.400000        0.400000
       0       2      26        0.000000        0.632456        0.286045
      -1      -2     -26        0.000000        0.793725        0.210630
      -1      -2     -26        0.000000        1.044031        0.295699
      -1       2     -26        0.000000        1.252996        0.471971
       2      -2      26        0.000000        0.964365        0.286132
      -2      -2     -26        0.000000        1.000000        0.245017
      -2       2     -26        0.000000        1.072381        0.572381
       2       2      26        0.000000        1.109054        0.214626
       3      -2      26        0.000000        2.271563        0.164433
      -3      -2     -26        0.000000        2.453569        0.136243
      -3       2     -26        0.000000        2.222611        0.129766
      -3       2     -26        0.000000        2.662705        0.217302
       3       2      26        0.000000        2.340940        0.140940
       4      -3     -26        0.000000        1.905256        0.280448
       4       3     -26        0.000000        1.292285        1.047336
      -3      -3      26        0.000000        1.679286        0.182623
       3      -3     -26        0.000000        1.503330        0.254330
       3       3     -26        0.000000        1.618641        0.341927
       2      -3     -26        0.000000        1.337909        0.237909
      -2      -3      26        0.000000        1.356466        0.160640
      -2      -3      26        0.000000        1.385641        0.164985
       2       3     -26        0.000000        1.763519        0.243651
       1      -3     -26        0.000000        0.734847        0.434847
      -1      -3      26        0.000000        0.547723        0.547723
       1       3     -26        0.000000        0.583095        0.583095
       0      -3     -26        0.000000        1.549193        0.163553
       0      -3     -26        0.000000        1.479865        0.116047
       0      -3      26        0.000000        1.256981        0.166109
       0       3     -26        0.000000        1.459452        0.537498
      -1      -3     -26        0.000000        0.346410        0.496205
       1      -3      26        0.000000        0.200000        0.416441
       2      -3      26        0.000000        1.330413        0.194632
      -2      -3     -26        0.000000        1.438749        0.169892
      -2       3     -26        0.000000        1.374773        0.261220
      -3       3     -26        0.000000        0.447214        0.587194
       3      -4     -26        0.000000        1.835756        0.235756
      -3      -4      26        0.000000        1.754993        0.189745
       3       4     -26        0.000000        2.291288        0.308865
      -2      -4      26        0.000000        0.741620        0.354322
      -2      -4      26        0.000000        1.095445        0.201018
       2      -4     -26        0.000000        1.276715        0.271727
       2       4     -26        0.000000        1.048809        0.601595
       1      -4     -26        0.000000        1.910497        0.187129
      -1      -4      26        0.000000        1.835756        0.150526
       1       4     -26        0.000000        2.080865        0.272551
       0      -4     -26        0.000000        1.272792        0.228762
       0      -4      26        0.000000        1.489966        0.152058
       0      -4     -26        0.000000        1.345362        0.137058
       0       4     -26        0.000000        0.927362        0.927362
      -1      -4     -26        0.000000        1.618641        0.138777
      -1      -4     -26        0.000000        1.300000        0.246435
       1      -4      26        0.000000        1.341641        0.171171
      -1       4     -26        0.000000        0.331662        1.039468
       2      -4      26        0.000000        0.800000        0.375736
      -2      -4     -26        0.000000        0.244949        0.425871
      -2       4     -26        0.000000        0.748331        0.748331
      -3      -4     -26        0.000000        0.974679        0.358238
       3      -4      26        0.000000        0.685565        0.685565
      -3       4     -26        0.000000        1.009950        0.745375
      -2      -5      26        0.000000        2.541653        0.141653
       2      -5     -26        0.000000        2.896550        0.192849
      -2      -5      26        0.000000        2.428992        0.139887
      -1      -5      26        0.000000        1.977372        0.138894
       1      -5     -26        0.000000        1.811077        0.189350
       1       5     -26        0.000000        0.616441        0.706434
       0      -5      26        0.000000        4.268489        0.135694
       0      -5     -26        0.000000        4.302325        0.156242
       0      -5     -26        0.000000        4.124318        0.116825
       0       5     -26        0.000000        3.494281        0.294281
      -1      -5     -26        0.000000        0.979796        0.371520
       1      -5      26        0.000000        0.866025        0.318303
      -1      -5     -26        0.000000        1.220656        0.200852
      -1       5     -26        0.000000        0.000000        1.363818
       2      -5      26        0.000000        1.109054        0.272394
      -2      -6      26        0.000000        0.830662        0.514435
       2      -6     -26        0.000000        0.529150        0.529150
      -1      -6      26        0.000000        0.741620        0.518013
       1      -6     -26        0.000000        1.208305        0.342279
       1       6     -26        0.000000        0.640312        0.869654
       0      -6     -26        0.000000        0.264575        0.589825
       0      -6      26        0.000000        0.754983        0.454983
       0       6     -26        0.000000        0.500000        0.935270
       1      -6      26        0.000000        2.796426        0.162038
      -1      -6     -26        0.000000        2.934280        0.219506
      -1      -6     -26        0.000000        2.872281        0.153826
      -1       6     -26        0.000000        2.231591        0.640994
       2      -6      26        0.000000        1.367479        0.290446
      -2      -6     -26        0.000000        1.072381        0.291356
      -1      -7      26        0.000000        0.173205        0.540938
       1      -7     -26        0.000000        0.624500        0.624500
      -1      -7      26        0.000000        0.556776        0.556776
       1       7     -26        0.000000        2.022375        0.673301
       0      -7      26        0.000000        1.915724        0.180789
       0      -7     -26        0.000000        2.165641        0.221419
       1      -7      26        0.000000        0.200000        0.587401
       4       0     -27        0.000000        0.685565        0.685565
      -3       0      27        0.000000        0.812404        0.388140
      -2       0      27        0.000000        0.264575        0.359925
       2       0     -27        0.000000        0.100000        0.674597
      -2       0      27        0.000000        0.400000        0.400000
       1       0     -27        0.000000        0.264575        0.503539
      -1       0      27        0.000000        0.458258        0.458258
       0       0     -27        0.000000        0.818535        0.444370
       0       0      27        0.000000        0.812404        0.229309
       1       0      27        0.000000        3.083829        0.137645
      -1       0     -27        0.000000        3.209361        0.096485
      -1       0     -27        0.000000        3.014963        0.177710
      -2       0     -27        0.000000        0.565685        0.565685
      -3       0     -27        0.000000        2.280351        0.137922
       3       0      27        0.000000        2.242766        0.154705
      -4      -1      27        0.000000        1.685230        0.271016
       4      -1     -27        0.000000        1.769181        0.369181
       4       1     -27        0.000000        1.220656        0.751614
      -3      -1      27        0.000000        0.948683        0.316228
       3      -1     -27        0.000000        1.280625        0.369581
       3       1     -27        0.000000        0.964365        0.719416
      -3       1      27        0.000000        1.479865        0.230865
      -2      -1      27        0.000000        0.387298        0.387298
      -1      -1      27        0.000000        1.264911        0.178633
       1      -1     -27        0.000000        1.673320        0.203626
      -1       1      27        0.000000        1.403567        0.146586
       1       1     -27        0.000000        1.449138        0.228482
       0      -1     -27        0.000000        1.694107        0.197444
       0      -1      27        0.000000        1.244990        0.167957
       0       1     -27        0.000000        1.410674        0.244483
       0       1      27        0.000000        1.555635        0.130854
       1      -1      27        0.000000        2.453569        0.129779
      -1      -1     -27        0.000000        2.495997        0.172207
      -1      -1     -27        0.000000        2.071232        0.114193
      -1       1     -27        0.000000        2.716616        0.180871
       1       1      27        0.000000        2.319483        0.124033
      -1       1     -27        0.000000        2.222611        0.101291
       2      -1      27        0.000000        2.475884        0.137081
      -2      -1     -27        0.000000        2.227106        0.129488
       2       1      27        0.000000        2.677686        0.130138
      -2       1     -27        0.000000        2.315167        0.117441
      -2       1     -27        0.000000        2.227106        0.189951
       3       1      27        0.000000        0.655744        0.655744
      -4      -2      27        0.000000        1.941649        0.215381
       4      -2     -27        0.000000        0.608276        0.664516
       4       2     -27        0.000000        1.558846        0.543957
      -3      -2      27        0.000000        2.002498        0.155880
       3      -2     -27        0.000000        2.024846        0.208255
       3       2     -27        0.000000        1.763519        0.317836
      -2      -2      27        0.000000        1.685230        0.136037
       2      -2     -27        0.000000        1.878829        0.184722
      -2      -2      27        0.000000        1.939072        0.122482
       2       2     -27        0.000000        1.729162        0.249297
      -2       2      27        0.000000        1.549193        0.138520
       1      -2     -27        0.000000        1.212436        0.237756
      -1      -2      27        0.000000        1.148913        0.179377
       1       2     -27        0.000000        1.195826        0.312650
      -1       2      27        0.000000        1.126943        0.162578
       0      -2      27        0.000000        3.417601        0.114573
       0      -2     -27        0.000000        3.264966        0.161741
       0       2      27        0.000000        3.438023        0.112365
       0       2     -27        0.000000        3.189044        0.251358
      -1      -2     -27        0.000000        0.316228        0.471173
       1       2      27        0.000000        0.565685        0.565685
      -1       2     -27        0.000000        0.547723        0.561331
       2      -2      27        0.000000        2.142429        0.149943
      -2      -2     -27        0.000000        2.400000        0.124039
       2       2      27        0.000000        2.422808        0.142457
      -2       2     -27        0.000000        2.389561        0.198670
      -3      -2     -27        0.000000        0.469042        0.469042
       3      -2      27        0.000000        0.663325        0.663325
      -3       2     -27        0.000000        0.774597        0.774597
       3       2      27        0.000000        0.100000        0.628011
      -3      -3      27        0.000000        2.193171        0.160931
       3      -3     -27        0.000000        2.190890        0.216048
       3       3     -27        0.000000        1.957039        0.283719
      -2      -3      27        0.000000        2.445404        0.149756
      -2      -3      27        0.000000        2.969848        0.130835
       2      -3     -27        0.000000        3.075711        0.175711
       2       3     -27        0.000000        3.220248        0.198659
       1      -3     -27        0.000000        2.816026        0.155199
      -1      -3      27        0.000000        3.064311        0.124923
       1       3     -27        0.000000        2.856571        0.227883
       0      -3      27        0.000000        0.714143        0.301832
       0      -3     -27        0.000000        0.860233        0.350331
       0       3     -27        0.000000        0.707107        0.707107
       1      -3      27        0.000000        3.588872        0.129103
      -1      -3     -27        0.000000        3.502856        0.116117
      -1      -3     -27        0.000000        3.745664        0.167955
      -2      -3     -27        0.000000        1.835756        0.138700
       2      -3      27        0.000000        1.526434        0.181071
      -2       3     -27        0.000000        1.830301        0.233429
       3      -3      27        0.000000        1.824829        0.224829
      -3      -3     -27        0.000000        1.746425        0.187579
       3       3      27        0.000000        1.997498        0.172670
      -3       3     -27        0.000000        2.357965        0.260348
       3      -4     -27        0.000000        0.781025        0.781025
      -3      -4      27        0.000000        0.800000        0.700000
       3       4     -27        0.000000        0.678233        0.678233
      -2      -4      27        0.000000        2.381176        0.138410
      -2      -4      27        0.000000        2.789265        0.134082
       2      -4     -27        0.000000        2.837252        0.195283
       2       4     -27        0.000000        2.903446        0.253918
       1      -4     -27        0.000000        3.295451        0.174554
      -1      -4      27        0.000000        3.500000        0.136966
       1       4     -27        0.000000        3.772267        0.242395
       0      -4     -27        0.000000        3.507136        0.160495
       0      -4      27        0.000000        3.342155        0.128123
      -1      -4     -27        0.000000        0.223607        0.424467
      -1      -4     -27        0.000000        0.509902        0.509902
       1      -4      27        0.000000        0.793725        0.314142
      -1       4     -27        0.000000        0.734847        0.778428
       2      -4      27        0.000000        3.065942        0.148752
      -2      -4     -27        0.000000        3.210919        0.141717
      -2       4     -27        0.000000        2.942788        0.211488
       3      -4      27        0.000000        1.334166        0.534166
      -3      -4     -27        0.000000        1.326650        0.258942
      -3       4     -27        0.000000        1.385641        0.485641
      -2      -5      27        0.000000        1.345362        0.196450
       2      -5     -27        0.000000        1.473092        0.294109
      -1      -5      27        0.000000        3.594440        0.131782
       1      -5     -27        0.000000        3.556684        0.178815
       0      -5      27        0.000000        2.688866        0.161021
       0      -5     -27        0.000000        2.469818        0.182898
       0       5     -27        0.000000        1.442221        0.885444
       1      -5      27        0.000000        2.158703        0.151217
      -1      -5     -27        0.000000        2.144761        0.187722
      -1      -5     -27        0.000000        2.420744        0.133824
      -1       5     -27        0.000000        2.289105        0.522752
       2      -5      27        0.000000        1.014889        0.322069
      -2       5     -27        0.000000        0.300000        0.605539
       2      -6     -27        0.000000        1.516575        0.380793
      -2      -6      27        0.000000        0.387298        0.478727
       1      -6     -27        0.000000        0.860233        0.687027
       1       6     -27        0.000000        0.100000        1.324781
       0      -6      27        0.000000        3.000000        0.150439
       0      -6     -27        0.000000        2.952965        0.208880
       0       6     -27        0.000000        1.905256        0.680511
       1      -6      27        0.000000        2.872281        0.159349
      -1      -6     -27        0.000000        2.952965        0.156538
      -1      -6     -27        0.000000        2.758623        0.222878
      -1       6     -27        0.000000        1.565248        1.565248
      -1      -7      27        0.000000        0.836660        0.591711
      -1      -7     -27        0.000000        0.969536        0.969536
      -1      -7     -27        0.000000        1.220656        0.315117
       2       0     -28        0.000000        3.258834        0.184749
       1       0     -28        0.000000        0.707107        0.707107
       0       0     -28        0.000000        0.264575        0.497002
       0       0      28        0.000000        0.994987        0.194987
       1       0      28        0.000000        0.400000        0.400000
      -1       0     -28        0.000000        0.608276        0.261866
      -1       0     -28        0.000000        0.282843        0.565685
       2       0      28        0.000000        5.005996        0.140814
      -3       0     -28        0.000000        0.787401        0.487401
       4      -1     -28        0.000000        0.529150        0.683285
       3      -1     -28        0.000000        1.438749        0.343304
      -3      -1      28        0.000000        1.584298        0.195054
      -3       1      28        0.000000        1.519868        0.336652
       3       1     -28        0.000000        1.220656        0.506513
       2      -1     -28        0.000000        0.663325        0.663325
      -2      -1      28        0.000000        0.748331        0.279290
      -2       1      28        0.000000        0.714143        0.314143
       2       1     -28        0.000000        0.969536        0.421813
      -1      -1      28        0.000000        1.466288        0.158618
       1      -1     -28        0.000000        1.769181        0.200742
      -1       1      28        0.000000        1.760682        0.123611
       1       1     -28        0.000000        1.445683        0.245683
       0       1      28        0.000000        0.761577        0.261577
      -1      -1     -28        0.000000        1.936492        0.266162
       1      -1      28        0.000000        2.149419        0.134474
      -1      -1     -28        0.000000        2.078461        0.116319
      -1       1     -28        0.000000        2.487971        0.203239
       1       1      28        0.000000        2.100000        0.132768
      -2      -1     -28        0.000000        0.141421        0.441674
       2      -1      28        0.000000        0.700000        0.558579
      -3      -1     -28        0.000000        3.871692        0.135384
       3      -1      28        0.000000        3.809199        0.154066
       3       1      28        0.000000        3.649658        0.171152
      -3       1     -28        0.000000        3.766962        0.140669
       3      -2     -28        0.000000        0.489898        0.510102
      -3      -2      28        0.000000        0.824621        0.478211
       2      -2     -28        0.000000        0.655744        0.655744
      -2      -2      28        0.000000        0.244949        0.387507
      -2       2      28        0.000000        0.400000        0.400000
       1      -2     -28        0.000000        0.000000        0.678233
      -1      -2      28        0.000000        0.565685        0.565685
      -1       2      28        0.000000        0.774597        0.254981
       1       2     -28        0.000000        0.905539        0.544983
       0      -2     -28        0.000000        3.413210        0.168213
       0       2     -28        0.000000        3.391165        0.186481
       0       2      28        0.000000        3.016621        0.184660
      -1      -2     -28        0.000000        0.608276        0.343701
      -1      -2     -28        0.000000        0.600000        0.600000
       1       2      28        0.000000        0.509902        0.509902
       2      -2      28        0.000000        1.166190        0.260652
      -2      -2     -28        0.000000        1.452584        0.168061
      -2       2     -28        0.000000        1.216553        0.339056
       2       2      28        0.000000        1.200000        0.210051
       3      -2      28        0.000000        0.100000        0.661577
      -3       2     -28        0.000000        0.424264        0.648116
       3       2      28        0.000000        0.479583        0.479583
      -3      -3      28        0.000000        2.893095        0.159965
       3      -3     -28        0.000000        2.925748        0.225748
       3       3     -28        0.000000        2.632489        0.268171
      -2      -3      28        0.000000        1.284523        0.179987
       2      -3     -28        0.000000        1.326650        0.273085
       2       3     -28        0.000000        1.086278        0.547762
      -1      -3      28        0.000000        1.236932        0.226981
       1      -3     -28        0.000000        1.067708        0.293111
      -1       3      28        0.000000        0.800000        0.252277
       1       3     -28        0.000000        1.144552        0.409705
       0      -3      28        0.000000        0.173205        0.459250
       0       3     -28        0.000000        0.842615        0.842615
       1      -3      28        0.000000        2.723968        0.135532
      -1      -3     -28        0.000000        2.798214        0.118662
      -1      -3     -28        0.000000        2.707397        0.181531
      -1       3     -28        0.000000        2.206808        0.406808
       2      -3      28        0.000000        0.331662        0.436452
      -2       3     -28        0.000000        0.374166        0.491860
      -3      -3     -28        0.000000        0.871780        0.424566
       3      -3      28        0.000000        0.663325        0.663325
      -3       3     -28        0.000000        1.122497        0.642914
       3       3      28        0.000000        0.412311        0.447922
      -3      -4      28        0.000000        1.284523        0.289536
       3       4     -28        0.000000        0.547723        0.859402
       2      -4     -28        0.000000        0.911043        0.475153
      -2      -4      28        0.000000        0.921954        0.297455
       2       4     -28        0.000000        1.729162        0.350757
      -1      -4      28        0.000000        1.014889        0.273269
       1      -4     -28        0.000000        0.692820        0.692820
       1       4     -28        0.000000        1.029563        1.029563
       0      -4      28        0.000000        1.174734        0.205198
       0      -4     -28        0.000000        1.183216        0.283216
       0       4     -28        0.000000        0.774597        0.774597
      -1      -4     -28        0.000000        0.556776        0.556776
       1      -4      28        0.000000        1.126943        0.243767
      -1       4     -28        0.000000        1.024695        1.024695
      -2      -4     -28        0.000000        2.343075        0.143075
       2      -4      28        0.000000        2.315167        0.170406
      -2       4     -28        0.000000        2.414539        0.209999
       2      -5     -28        0.000000        1.067708        0.427395
      -2      -5      28        0.000000        0.894427        0.337651
       1      -5     -28        0.000000        0.469042        0.469042
      -1      -5      28        0.000000        0.387298        0.387298
       0      -5     -28        0.000000        0.728011        0.728011
       0      -5      28        0.000000        0.883176        0.354026
      -1      -5     -28        0.000000        1.600000        0.269587
      -1      -5     -28        0.000000        1.431782        0.186792
       1      -5      28        0.000000        1.356466        0.247412
      -1       5     -28        0.000000        1.679286        0.824885
       2      -5      28        0.000000        2.385372        0.174038
      -2      -5     -28        0.000000        2.204541        0.189597
      -2       5     -28        0.000000        2.280351        0.267890
       1      -6     -28        0.000000        0.600000        0.600000
      -1      -6      28        0.000000        0.685565        0.685565
       1       6     -28        0.000000        0.877496        0.877496
       0      -6      28        0.000000        1.086278        0.305253
       0      -6     -28        0.000000        1.178983        0.404386
      -1      -6     -28        0.000000        0.842615        0.842615
      -1      -6     -28        0.000000        0.316228        0.583772
       1      -6      28        0.000000        0.591608        0.591608
      -1      -7      28        0.000000        4.833218        0.173819
       3       0     -29        0.000000        2.653300        0.224308
      -3       0      29        0.000000        2.792848        0.145208
      -2       0      29        0.000000        0.728011        0.303747
       2       0     -29        0.000000        0.714143        0.714143
       1       0     -29        0.000000        2.740438        0.190928
      -1       0      29        0.000000        2.592296        0.126531
       0       0     -29        0.000000        0.948683        0.438781
       0       0      29        0.000000        0.842615        0.352717
      -1       0     -29        0.000000        4.033609        0.183933
       1       0      29        0.000000        3.926831        0.130780
      -1       0     -29        0.000000        3.962323        0.136097
      -2       0     -29        0.000000        0.818535        0.298920
       3       0      29        0.000000        0.244949        0.603579
      -3       0     -29        0.000000        0.984886        0.284886
      -3      -1      29        0.000000        1.367479        0.240537
       3      -1     -29        0.000000        1.949359        0.261165
      -2      -1      29        0.000000        2.188607        0.127054
       2      -1     -29        0.000000        2.269361        0.215097
      -2       1      29        0.000000        2.209072        0.128207
       2       1     -29        0.000000        2.095233        0.232439
      -1      -1      29        0.000000        5.057667        0.132223
       1      -1     -29        0.000000        5.057667        0.168905
       1       1     -29        0.000000        4.970915        0.179256
      -1       1      29        0.000000        5.148786        0.130819
       0      -1      29        0.000000        0.565685        0.565685
       0      -1     -29        0.000000        0.435890        0.441607
       0       1      29        0.000000        0.685565        0.402723
       0       1     -29        0.000000        0.685565        0.685565
      -1      -1     -29        0.000000        0.173205        0.401251
      -1       1     -29        0.000000        0.608276        0.608276
       1       1      29        0.000000        0.663325        0.398750
      -2      -1     -29        0.000000        1.646208        0.152889
       2      -1      29        0.000000        2.007486        0.160867
       2       1      29        0.000000        2.186321        0.146713
      -2       1     -29        0.000000        1.907878        0.135874
      -2       1     -29        0.000000        1.897367        0.233035
      -3      -1     -29        0.000000        0.640312        0.640312
       3      -2     -29        0.000000        0.916515        0.775094
      -3      -2      29        0.000000        1.118034        0.324309
       2      -2     -29        0.000000        2.289105        0.205838
      -2      -2      29        0.000000        2.467793        0.146155
       2       2     -29        0.000000        2.561250        0.209654
      -1      -2      29        0.000000        1.200000        0.185111
       1      -2     -29        0.000000        1.024695        0.339130
      -1       2      29        0.000000        1.131371        0.177432
       1       2     -29        0.000000        1.244990        0.356171
       0      -2      29        0.000000        4.156922        0.125793
       0      -2     -29        0.000000        4.115823        0.169939
       0       2     -29        0.000000        4.213075        0.191881
       0       2      29        0.000000        4.071855        0.124704
       1      -2      29        0.000000        0.787401        0.471173
      -1      -2     -29        0.000000        1.489966        0.133500
      -1      -2     -29        0.000000        1.161895        0.307495
      -1       2     -29        0.000000        1.014889        1.014889
       1       2      29        0.000000        0.927362        0.264037
      -2      -2     -29        0.000000        0.894427        0.261972
       2       2      29        0.000000        0.331662        0.449362
       3      -2      29        0.000000        1.862794        0.207499
      -3      -2     -29        0.000000        0.848528        0.474362
       3       2      29        0.000000        1.621727        0.236087
       3      -3     -29        0.000000        1.004988        0.630822
       2      -3     -29        0.000000        1.959592        0.201752
      -2      -3      29        0.000000        2.027313        0.137869
       2       3     -29        0.000000        2.109502        0.260178
      -1      -3      29        0.000000        0.854400        0.297624
       1      -3     -29        0.000000        0.741620        0.741620
      -1       3      29        0.000000        0.748331        0.606910
       1       3     -29        0.000000        0.911043        0.911043
       0      -3      29        0.000000        0.479583        0.479583
       0       3     -29        0.000000        1.400000        0.446061
      -1      -3     -29        0.000000        3.377869        0.119035
      -1      -3     -29        0.000000        3.574913        0.188174
       1      -3      29        0.000000        3.368976        0.139425
      -1       3     -29        0.000000        2.867054        0.343168
       2      -3      29        0.000000        1.067708        0.312724
      -2      -3     -29        0.000000        0.800000        0.483772
       2       3      29        0.000000        1.228821        0.233833
      -2       3     -29        0.000000        1.039230        0.510080
      -3      -3     -29        0.000000        0.714143        0.714143
      -3       3     -29        0.000000        1.341641        0.541641
      -2      -4      29        0.000000        1.816590        0.164319
       2      -4     -29        0.000000        1.529706        0.292774
       2       4     -29        0.000000        2.137756        0.340536
       1      -4     -29        0.000000        0.707107        0.707107
      -1      -4      29        0.000000        0.921954        0.347498
       1       4     -29        0.000000        1.086278        1.086278
       0      -4     -29        0.000000        0.883176        0.470866
       1      -4      29        0.000000        0.616441        0.616441
      -1       4     -29        0.000000        1.272792        1.272792
       2      -4      29        0.000000        2.988311        0.165192
      -2      -4     -29        0.000000        3.061046        0.159322
      -2       4     -29        0.000000        2.917190        0.220897
       2      -5     -29        0.000000        1.558846        0.301865
      -2      -5      29        0.000000        1.568439        0.208292
       1      -5     -29        0.000000        2.073644        0.229735
      -1      -5      29        0.000000        2.165641        0.153180
       1       5     -29        0.000000        1.044031        1.044031
       0      -5     -29        0.000000        0.806226        0.806226
       0      -5      29        0.000000        0.959166        0.334667
      -1       5     -29        0.000000        0.648074        0.967475
      -2      -5     -29        0.000000        0.979796        0.355296
      -2       5     -29        0.000000        0.974679        0.974679
       0      -6      29        0.000000        1.933908        0.178915
       0      -6     -29        0.000000        1.058301        0.538685
      -1      -6     -29        0.000000        0.800000        0.800000
      -2       0      30        0.000000        6.345865        0.146671
       2       0     -30        0.000000        6.168468        0.188502
       1       0     -30        0.000000        0.244949        0.609451
       0       0      30        0.000000        0.692820        0.492820
       1       0      30        0.000000        0.538516        0.538516
      -1       0     -30        0.000000        0.500000        0.500000
       2       0      30        0.000000        0.836660        0.462494
      -2       0     -30        0.000000        1.039230        0.226827
      -3       0     -30        0.000000        1.100000        0.300000
       3      -1     -30        0.000000        3.293934        0.229623
      -3      -1      30        0.000000        2.722132        0.155032
       3       1     -30        0.000000        2.842534        0.248310
       2      -1     -30        0.000000        0.900000        0.758579
      -2      -1      30        0.000000        1.240967        0.168587
      -2       1      30        0.000000        0.921954        0.266211
       2       1     -30        0.000000        0.458258        0.580973
       1      -1     -30        0.000000        3.590265        0.181453
      -1      -1      30        0.000000        3.645545        0.142689
       1       1     -30        0.000000        3.364521        0.210159
      -1       1      30        0.000000        3.769615        0.125442
       0      -1      30        0.000000        5.860887        0.145120
       0      -1     -30        0.000000        5.740209        0.175139
       0       1      30        0.000000        5.925369        0.141772
       0       1     -30        0.000000        5.809475        0.184531
       1      -1      30        0.000000        0.574456        0.574456
      -1      -1     -30        0.000000        0.400000        0.548683
       1       1      30        0.000000        0.921954        0.273880
       2      -1      30        0.000000        1.000000        0.307180
      -2      -1     -30        0.000000        1.292285        0.187749
       2       1      30        0.000000        1.183216        0.283216
      -2       1     -30        0.000000        1.039230        0.239230
      -2       1     -30        0.000000        1.272792        0.524461
      -3      -2      30        0.000000        0.848528        0.565685
       3      -2     -30        0.000000        0.479583        0.592797
       3       2     -30        0.000000        1.157584        0.733320
      -2      -2      30        0.000000        0.412311        0.412311
       2       2     -30        0.000000        0.316228        0.632456
       1      -2     -30        0.000000        2.994996        0.194996
      -1      -2      30        0.000000        3.354102        0.135407
      -1       2      30        0.000000        2.994996        0.147190
       1       2     -30        0.000000        3.052868        0.229749
       0      -2     -30        0.000000        4.525483        0.176920
       0      -2      30        0.000000        4.747631        0.130272
       0       2     -30        0.000000        4.590207        0.190207
       0       2      30        0.000000        4.465423        0.131833
      -1      -2     -30        0.000000        3.954744        0.185129
       1      -2      30        0.000000        4.036087        0.137369
       1       2      30        0.000000        4.100000        0.131373
       2      -2      30        0.000000        1.900000        0.194128
      -2      -2     -30        0.000000        1.835756        0.174431
       2       2      30        0.000000        2.190890        0.148832
      -2       2     -30        0.000000        2.109502        0.241348
      -3      -2     -30        0.000000        1.469694        0.232762
      -3      -3      30        0.000000        1.529706        0.233558
      -2      -3      30        0.000000        3.477068        0.140902
       2      -3     -30        0.000000        3.268027        0.205348
       2       3     -30        0.000000        3.690528        0.229315
       1      -3     -30        0.000000        1.268858        0.304493
      -1      -3      30        0.000000        1.378405        0.212214
       1       3     -30        0.000000        1.195826        0.495826
      -1       3      30        0.000000        1.658312        0.171706
       0      -3     -30        0.000000        0.100000        0.706226
       0      -3      30        0.000000        1.090871        0.230639
       0       3      30        0.000000        0.538516        0.538516
       1      -3      30        0.000000        5.479051        0.148948
      -1      -3     -30        0.000000        5.445181        0.174508
       1       3      30        0.000000        5.630275        0.144840
       2      -3      30        0.000000        3.207803        0.179602
      -2      -3     -30        0.000000        3.370460        0.130090
      -2       3     -30        0.000000        3.003331        0.223044
       2       3      30        0.000000        3.257299        0.165375
      -2      -4      30        0.000000        0.300000        0.487401
       2      -4     -30        0.000000        0.728011        0.728011
      -1      -4      30        0.000000        1.228821        0.233833
       1      -4     -30        0.000000        1.118034        0.390023
       1       4     -30        0.000000        0.959166        0.959166
       0      -4      30        0.000000        1.954482        0.174033
       0      -4     -30        0.000000        2.213594        0.213594
       0       4     -30        0.000000        1.886796        0.534021
       1      -4      30        0.000000        0.600000        0.600000
      -1      -4     -30        0.000000        0.781025        0.781025
      -1       4     -30        0.000000        1.403567        1.403567
      -2      -4     -30        0.000000        4.142463        0.147466
       2      -4      30        0.000000        4.131586        0.150380
      -2       4     -30        0.000000        3.839271        0.197842
       1      -5     -30        0.000000        0.663325        0.663325
       0      -5      30        0.000000        1.148913        0.294512
       0      -5     -30        0.000000        0.800000        0.800000
      -1       5     -30        0.000000        1.315295        1.315295
       0      -6      30        0.000000        1.322876        0.283645
       0       6     -30        0.000000        1.717556        1.717556
      -3       0      31        0.000000        7.986864        0.179176
       3       0     -31        0.000000        7.443118        0.223007
       2       0     -31        0.000000        1.479865        0.344083
      -1       0      31        0.000000        1.326650        0.213097
       1       0     -31        0.000000        1.224745        0.382130
       0       0     -31        0.000000        0.100000        0.783176
       0       0      31        0.000000        0.714143        0.414143
       1       0      31        0.000000        4.054627        0.140550
      -1       0     -31        0.000000        4.389761        0.192142
      -3      -1      31        0.000000        0.678233        0.678233
       3      -1     -31        0.000000        0.685565        0.685565
       3       1     -31        0.000000        0.721110        0.721110
      -2      -1      31        0.000000        3.710795        0.131689
       2      -1     -31        0.000000        3.666061        0.199073
       2       1     -31        0.000000        3.157531        0.231783
      -2       1      31        0.000000        3.572114        0.134092
      -1      -1      31        0.000000        0.761577        0.461577
       1       1     -31        0.000000        0.707107        0.707107
      -1       1      31        0.000000        0.624500        0.624500
       0      -1      31        0.000000        0.774597        0.362286
       0      -1     -31        0.000000        1.374773        0.321207
       0       1      31        0.000000        1.034408        0.259811
       0       1     -31        0.000000        1.319091        0.334205
       1      -1      31        0.000000        0.583095        0.583095
      -1       1     -31        0.000000        0.500000        0.631371
       1       1      31        0.000000        0.812404        0.343362
       2      -1      31        0.000000        1.568439        0.219365
      -2      -1     -31        0.000000        1.371131        0.209236
       2       1      31        0.000000        1.204159        0.276798
      -3      -1     -31        0.000000        1.452584        0.321213
      -3       1     -31        0.000000        0.331662        0.516866
      -3      -2      31        0.000000        1.044031        0.403718
       2      -2     -31        0.000000        0.860233        0.860233
      -1      -2      31        0.000000        5.189412        0.143622
       1      -2     -31        0.000000        4.896938        0.186312
       1       2     -31        0.000000        5.200000        0.195002
      -1       2      31        0.000000        5.391660        0.132383
       0      -2     -31        0.000000        1.473092        0.289876
       0      -2      31        0.000000        0.984886        0.329142
       0       2      31        0.000000        0.500000        0.500000
       0       2     -31        0.000000        1.148913        0.565817
       1      -2      31        0.000000        2.308679        0.149976
      -1      -2     -31        0.000000        2.286919        0.225367
       1       2      31        0.000000        2.144761        0.149767
      -1       2     -31        0.000000        2.118962        0.410161
       2       2      31        0.000000        0.877496        0.377496
      -2      -3      31        0.000000        0.818535        0.444370
       1       3     -31        0.000000        0.692820        0.692820
      -1       3      31        0.000000        0.331662        0.442934
       0      -3      31        0.000000        2.351595        0.151595
       0      -3     -31        0.000000        2.163331        0.229423
       0       3     -31        0.000000        2.451530        0.332568
       0       3      31        0.000000        1.889444        0.160283
       1      -3      31        0.000000        0.655744        0.655744
      -1      -3     -31        0.000000        0.953939        0.579773
       1       3      31        0.000000        0.400000        0.400000
      -1       3     -31        0.000000        1.596872        0.841888
       2      -3      31        0.000000        4.223742        0.154344
      -2       3     -31        0.000000        4.079216        0.184347
       1      -4     -31        0.000000        1.808314        0.230341
      -1      -4      31        0.000000        1.811077        0.201729
      -1       4      31        0.000000        1.178983        0.290163
       1       4     -31        0.000000        1.144552        1.144552
      -1      -4     -31        0.000000        1.183216        0.483216
       1      -4      31        0.000000        0.500000        0.500000
      -2       4     -31        0.000000        0.921954        0.921954
       0      -5     -31        0.000000        1.884144        0.262417
       0      -5      31        0.000000        2.154066        0.194474
      -1      -5     -31        0.000000        0.591608        0.591608
      -2       0      32        0.000000        5.890671        0.144367
       2       0     -32        0.000000        5.562374        0.202336
      -1       0      32        0.000000        0.316228        0.432104
       0       0      32        0.000000        0.574456        0.574456
       0       0     -32        0.000000        0.806226        0.806226
       1       0      32        0.000000        0.200000        0.541620
      -1       0     -32        0.000000        1.272792        0.466566
      -3      -1      32        0.000000        3.306055        0.193179
      -2      -1      32        0.000000        5.474486        0.137821
       2      -1     -32        0.000000        5.131277        0.192653
      -2       1      32        0.000000        5.376802        0.143256
       2       1     -32        0.000000        5.264979        0.205334
       1      -1     -32        0.000000        3.241913        0.205468
      -1      -1      32        0.000000        3.003331        0.157282
      -1       1      32        0.000000        2.956349        0.158135
       0       1      32        0.000000        0.529150        0.529150
       0       1     -32        0.000000        0.141421        0.769622
      -1      -1     -32        0.000000        0.489898        0.529906
       1      -1      32        0.000000        0.591608        0.591608
       1       1      32        0.000000        0.728011        0.728011
       2      -1      32        0.000000        1.558846        0.239755
       2       1      32        0.000000        1.688194        0.239057
      -2      -2      32        0.000000        0.538516        0.538516
      -1      -2      32        0.000000        5.079370        0.141759
       1      -2     -32        0.000000        4.935585        0.185848
       1       2     -32        0.000000        5.173973        0.206076
      -1       2      32        0.000000        5.078386        0.139762
       0      -2      32        0.000000        2.121320        0.174528
       0      -2     -32        0.000000        2.147091        0.239213
       0       2     -32        0.000000        2.247221        0.259760
       0       2      32        0.000000        2.238303        0.157438
      -1      -2     -32        0.000000        1.183216        0.497650
       1      -2      32        0.000000        1.590597        0.201353
       1       2      32        0.000000        1.552417        0.210777
      -1       2     -32        0.000000        0.000000        1.280625
       2      -2      32        0.000000        1.228821        0.334393
       2       2      32        0.000000        0.721110        0.721110
      -2      -3      32        0.000000        0.979796        0.324052
       2       3     -32        0.000000        0.600000        0.715295
      -1      -3      32        0.000000        1.577973        0.214155
       1      -3     -32        0.000000        1.469694        0.312110
       1       3     -32        0.000000        0.883176        0.883176
      -1       3      32        0.000000        1.276715        0.242306
       0      -3      32        0.000000        5.301886        0.149217
       0      -3     -32        0.000000        5.203845        0.190862
       0       3     -32        0.000000        5.542563        0.263358
       1      -3      32        0.000000        2.366432        0.168706
      -1      -3     -32        0.000000        2.340940        0.238560
       1       3      32        0.000000        2.491987        0.155323
      -1       3     -32        0.000000        3.127299        0.395999
      -2       3     -32        0.000000        2.158703        0.279874
       1      -4     -32        0.000000        0.830662        0.830662
      -1      -4      32        0.000000        1.496663        0.251673
      -1       4      32        0.000000        1.337909        0.265528
       1       4     -32        0.000000        0.591608        0.757466
       0      -4      32        0.000000        0.877496        0.387598
      -1      -4     -32        0.000000        4.758151        0.211724
       1      -4      32        0.000000        4.957822        0.153657
      -1       4     -32        0.000000        4.487761        0.522916
       1       4      32        0.000000        4.863127        0.150378
       0      -5      32        0.000000        1.153256        0.359531
       0       5     -32        0.000000        1.363818        1.363818
      -2       0      33        0.000000        0.100000        0.614143
       2       0     -33        0.000000        0.781025        0.781025
       1       0     -33        0.000000        1.187434        0.439103
      -1       0      33        0.000000        1.019804        0.364060
       0       0      33        0.000000        0.538516        0.538516
      -1       0     -33        0.000000        0.818535        0.818535
       2      -1     -33        0.000000        4.250882        0.211080
      -2      -1      33        0.000000        4.115823        0.143418
       2       1     -33        0.000000        3.405877        0.272189
      -1      -1      33        0.000000        3.900000        0.149000
       1      -1     -33        0.000000        3.709447        0.216598
      -1       1      33        0.000000        3.921734        0.148142
       1       1     -33        0.000000        3.426368        0.249892
       0      -1     -33        0.000000        0.761577        0.761577
       0       1      33        0.000000        1.367479        0.244982
       0       1     -33        0.000000        1.000000        0.776393
       1      -1      33        0.000000        1.746425        0.197232
      -1      -1     -33        0.000000        1.118034        0.693770
      -1       1     -33        0.000000        1.907878        0.431396
       1       1      33        0.000000        1.526434        0.241910
       2      -2     -33        0.000000        0.479583        0.741072
       2       2     -33        0.000000        0.608276        0.812991
       1      -2     -33        0.000000        4.301163        0.195070
      -1      -2      33        0.000000        3.923009        0.148092
       1       2     -33        0.000000        3.954744        0.245297
      -1       2      33        0.000000        4.069398        0.142567
       0      -2     -33        0.000000        4.396590        0.201354
       0      -2      33        0.000000        4.549725        0.153136
       0       2      33        0.000000        4.417013        0.149695
       0       2     -33        0.000000        4.501111        0.230280
       1      -2      33        0.000000        1.452584        0.231928
       1       2      33        0.000000        1.288410        0.239601
      -1      -3      33        0.000000        1.303840        0.274277
      -1       3      33        0.000000        1.048809        0.377988
       1       3     -33        0.000000        1.039230        1.039230
       0      -3      33        0.000000        4.646504        0.150951
       0      -3     -33        0.000000        4.239104        0.211698
       0       3     -33        0.000000        4.219005        0.339572
       0       3      33        0.000000        4.301163        0.153874
      -1      -3     -33        0.000000        0.244949        0.765002
       1      -3      33        0.000000        0.632456        0.632456
      -1       3     -33        0.000000        2.416609        0.553816
       1       3      33        0.000000        1.044031        0.322920
      -2       3     -33        0.000000        1.311488        0.633255
      -1      -4      33        0.000000        1.476482        0.284845
       0      -4     -33        0.000000        4.569464        0.223201
       0      -4      33        0.000000        5.110773        0.157996
       0       4      33        0.000000        5.109795        0.146932
      -1      -4     -33        0.000000        3.906405        0.222657
      -1      -5      33        0.000000        3.745664        0.190386
      -2       0      34        0.000000        1.926136        0.185447
       0       0      34        0.000000        0.282843        0.491754
       1       0      34        0.000000        0.519615        0.519615
      -1       0     -34        0.000000        1.303840        0.568994
      -2      -1      34        0.000000        1.849324        0.194030
      -1      -1      34        0.000000        1.646208        0.214426
       1      -1     -34        0.000000        1.819341        0.316011
      -1       1      34        0.000000        1.081665        0.367523
       1       1     -34        0.000000        1.496663        0.383110
       0      -1     -34        0.000000        0.400000        0.629563
       0       1      34        0.000000        1.109054        0.290518
       0       1     -34        0.000000        1.034408        0.634408
      -1      -1     -34        0.000000        1.224745        0.616469
       1       1      34        0.000000        0.754983        0.754983
      -2      -2      34        0.000000        1.627882        0.231458
      -1      -2      34        0.000000        0.500000        0.500000
       1      -2     -34        0.000000        0.888819        0.888819
      -1       2      34        0.000000        1.039230        0.360997
       1       2     -34        0.000000        1.500000        0.373057
       0      -2      34        0.000000        2.267157        0.183890
       0      -2     -34        0.000000        2.029778        0.286219
       0       2     -34        0.000000        2.422808        0.315678
       0       2      34        0.000000        2.376973        0.170165
       1      -2      34        0.000000        0.800000        0.700000
       1       2      34        0.000000        0.692820        0.692820
      -1      -3      34        0.000000        1.581139        0.224673
      -1       3      34        0.000000        0.866025        0.866025
       0      -3      34        0.000000        0.714143        0.714143
       0      -3     -34        0.000000        1.337909        0.477676
       0       3      34        0.000000        1.276715        0.302035
      -1      -3     -34        0.000000        6.861487        0.209419
      -1      -4      34        0.000000        1.191638        0.397912
       0      -4      34        0.000000        4.579301        0.220402
      -1       0      35        0.000000        4.087787        0.162229
       1       0     -35        0.000000        3.760319        0.267469
       0       0     -35        0.000000        0.435890        0.622411
      -1       0     -35        0.000000        0.300000        0.956981
       1       0      35        0.000000        1.058301        0.372735
      -2      -1      35        0.000000        3.392639        0.159993
      -1      -1      35        0.000000        0.714143        0.714143
       0      -1     -35        0.000000        0.264575        0.740412
       0       1     -35        0.000000        1.649242        0.424497
       0       1      35        0.000000        1.486607        0.249675
      -1      -1     -35        0.000000        0.663325        0.663325
      -1       1     -35        0.000000        1.670329        1.670329
       1       1      35        0.000000        0.994987        0.536730
      -1      -2      35        0.000000        1.349074        0.267408
       0      -2     -35        0.000000        0.806226        0.806226
       0       2      35        0.000000        0.854400        0.854400
      -1      -2     -35        0.000000        2.600000        0.293487
      -1      -3      35        0.000000        1.774824        0.238595
       0      -3      35        0.000000        2.410394        0.172091
       0       3      35        0.000000        2.076054        0.213260
       0       0      36        0.000000        1.884144        0.225832
       0      -1      36        0.000000        4.032369        0.168433
       0       1      36        0.000000        3.641428        0.194691
       0      -2      36        0.000000        1.148913        0.848913
       0       2      36        0.000000        0.500000        0.558301
